MODEL 1
REMARK VINA RESULT:      -8.2      0.000      0.000
REMARK  Name = 
REMARK  7 active torsions:
REMARK  status: ('A' for Active; 'I' for Inactive)
REMARK    1  A    between atoms: C_6  and  C_7
REMARK    2  A    between atoms: C_10  and  N_11
REMARK    3  A    between atoms: C_12  and  C_14
REMARK    4  A    between atoms: C_14  and  C_15
REMARK    5  A    between atoms: C_15  and  N_16
REMARK    6  A    between atoms: C_15  and  C_25
REMARK    7  A    between atoms: C_17  and  C_19
REMARK                            x       y       z     vdW  Elec       q    Type
REMARK                         _______ _______ _______ _____ _____    ______ ____
ROOT
ATOM      1  C   UNL     1      37.417   3.807  16.164  0.00  0.00    +0.000 C 
ENDROOT
BRANCH   1   2
ATOM      2  C   UNL     1      38.633   4.692  16.756  0.00  0.00    +0.000 A 
ATOM      3  C   UNL     1      38.643   4.815  18.128  0.00  0.00    +0.000 A 
ATOM      4  C   UNL     1      39.662   5.579  18.695  0.00  0.00    +0.000 A 
ATOM      5  C   UNL     1      40.584   6.156  17.849  0.00  0.00    +0.000 A 
ATOM      6  C   UNL     1      40.536   6.005  16.478  0.00  0.00    +0.000 A 
ATOM      7  C   UNL     1      39.516   5.240  15.915  0.00  0.00    +0.000 A 
ENDBRANCH   1   2
BRANCH   1   8
ATOM      8  N   UNL     1      37.006   4.830  15.036  0.00  0.00    +0.000 NA
ATOM      9  C   UNL     1      35.688   4.722  14.541  0.00  0.00    +0.000 C 
ATOM     10  O   UNL     1      34.974   3.827  15.039  0.00  0.00    +0.000 OA
BRANCH   9  11
ATOM     11  C   UNL     1      35.161   5.613  13.485  0.00  0.00    +0.000 A 
ATOM     12  C   UNL     1      35.737   5.703  12.240  0.00  0.00    +0.000 A 
ATOM     13  C   UNL     1      35.275   6.525  11.231  0.00  0.00    +0.000 A 
ATOM     14  C   UNL     1      34.167   7.300  11.500  0.00  0.00    +0.000 A 
ATOM     15  C   UNL     1      33.548   7.254  12.730  0.00  0.00    +0.000 A 
ATOM     16  C   UNL     1      34.054   6.406  13.714  0.00  0.00    +0.000 A 
ENDBRANCH   9  11
ENDBRANCH   1   8
BRANCH   1  17
ATOM     17  C   UNL     1      38.416   2.948  15.130  0.00  0.00    +0.000 C 
BRANCH  17  19
ATOM     18  N   UNL     1      37.559   0.808  16.040  0.00  0.00    +0.000 NA
ATOM     19  C   UNL     1      37.644   1.668  14.941  0.00  0.00    +0.000 C 
ATOM     20  O   UNL     1      37.087   1.334  13.887  0.00  0.00    +0.000 OA
BRANCH  18  27
ATOM     21  C   UNL     1      34.853   0.706  16.896  0.00  0.00    +0.000 C 
ATOM     22  C   UNL     1      35.577  -0.546  16.483  0.00  0.00    +0.000 A 
ATOM     23  C   UNL     1      34.878  -1.738  16.536  0.00  0.00    +0.000 A 
ATOM     24  C   UNL     1      35.547  -2.871  16.148  0.00  0.00    +0.000 A 
ATOM     25  C   UNL     1      36.871  -2.795  15.724  0.00  0.00    +0.000 A 
ATOM     26  C   UNL     1      37.550  -1.581  15.681  0.00  0.00    +0.000 A 
ATOM     27  C   UNL     1      36.890  -0.438  16.067  0.00  0.00    +0.000 A 
BRANCH  26  28
ATOM     28  C   UNL     1      38.972  -1.516  15.222  0.00  0.00    +0.000 C 
ATOM     29  C   UNL     1      38.989  -1.660  13.709  0.00  0.00    +0.000 C 
ATOM     30  C   UNL     1      39.742  -2.692  15.783  0.00  0.00    +0.000 C 
ENDBRANCH  26  28
ENDBRANCH  18  27
ENDBRANCH  17  19
ENDBRANCH   1  17
TORSDOF 7
ENDMDL
MODEL 2
REMARK VINA RESULT:      -7.9      1.235      5.322
REMARK  Name = 
REMARK  7 active torsions:
REMARK  status: ('A' for Active; 'I' for Inactive)
REMARK    1  A    between atoms: C_6  and  C_7
REMARK    2  A    between atoms: C_10  and  N_11
REMARK    3  A    between atoms: C_12  and  C_14
REMARK    4  A    between atoms: C_14  and  C_15
REMARK    5  A    between atoms: C_15  and  N_16
REMARK    6  A    between atoms: C_15  and  C_25
REMARK    7  A    between atoms: C_17  and  C_19
REMARK                            x       y       z     vdW  Elec       q    Type
REMARK                         _______ _______ _______ _____ _____    ______ ____
ROOT
ATOM      1  C   UNL     1      36.967   3.824  13.880  0.00  0.00    +0.000 C 
ENDROOT
BRANCH   1   2
ATOM      2  C   UNL     1      35.912   4.961  13.427  0.00  0.00    +0.000 A 
ATOM      3  C   UNL     1      36.109   5.458  12.157  0.00  0.00    +0.000 A 
ATOM      4  C   UNL     1      35.237   6.452  11.717  0.00  0.00    +0.000 A 
ATOM      5  C   UNL     1      34.243   6.868  12.576  0.00  0.00    +0.000 A 
ATOM      6  C   UNL     1      34.082   6.340  13.842  0.00  0.00    +0.000 A 
ATOM      7  C   UNL     1      34.956   5.346  14.278  0.00  0.00    +0.000 A 
ENDBRANCH   1   2
BRANCH   1   8
ATOM      8  N   UNL     1      37.437   4.554  15.197  0.00  0.00    +0.000 NA
ATOM      9  C   UNL     1      38.824   4.543  15.459  0.00  0.00    +0.000 C 
ATOM     10  O   UNL     1      39.547   3.954  14.628  0.00  0.00    +0.000 OA
BRANCH   9  11
ATOM     11  C   UNL     1      39.412   5.187  16.653  0.00  0.00    +0.000 A 
ATOM     12  C   UNL     1      38.833   5.103  17.898  0.00  0.00    +0.000 A 
ATOM     13  C   UNL     1      39.350   5.693  19.034  0.00  0.00    +0.000 A 
ATOM     14  C   UNL     1      40.520   6.411  18.901  0.00  0.00    +0.000 A 
ATOM     15  C   UNL     1      41.146   6.531  17.679  0.00  0.00    +0.000 A 
ATOM     16  C   UNL     1      40.582   5.915  16.563  0.00  0.00    +0.000 A 
ENDBRANCH   9  11
ENDBRANCH   1   8
BRANCH   1  17
ATOM     17  C   UNL     1      35.806   2.934  14.695  0.00  0.00    +0.000 C 
BRANCH  17  19
ATOM     18  N   UNL     1      37.131   1.065  15.639  0.00  0.00    +0.000 NA
ATOM     19  C   UNL     1      36.348   1.532  14.580  0.00  0.00    +0.000 C 
ATOM     20  O   UNL     1      36.147   0.778  13.618  0.00  0.00    +0.000 OA
BRANCH  18  27
ATOM     21  C   UNL     1      39.678   0.656  14.449  0.00  0.00    +0.000 C 
ATOM     22  C   UNL     1      38.969  -0.468  15.154  0.00  0.00    +0.000 A 
ATOM     23  C   UNL     1      39.601  -1.697  15.199  0.00  0.00    +0.000 A 
ATOM     24  C   UNL     1      38.947  -2.711  15.852  0.00  0.00    +0.000 A 
ATOM     25  C   UNL     1      37.703  -2.485  16.435  0.00  0.00    +0.000 A 
ATOM     26  C   UNL     1      37.090  -1.237  16.374  0.00  0.00    +0.000 A 
ATOM     27  C   UNL     1      37.736  -0.212  15.722  0.00  0.00    +0.000 A 
BRANCH  26  28
ATOM     28  C   UNL     1      35.754  -1.009  17.006  0.00  0.00    +0.000 C 
ATOM     29  C   UNL     1      35.948  -0.936  18.512  0.00  0.00    +0.000 C 
ATOM     30  C   UNL     1      34.855  -2.196  16.737  0.00  0.00    +0.000 C 
ENDBRANCH  26  28
ENDBRANCH  18  27
ENDBRANCH  17  19
ENDBRANCH   1  17
TORSDOF 7
ENDMDL
MODEL 3
REMARK VINA RESULT:      -7.9      0.763      2.605
REMARK  Name = 
REMARK  7 active torsions:
REMARK  status: ('A' for Active; 'I' for Inactive)
REMARK    1  A    between atoms: C_6  and  C_7
REMARK    2  A    between atoms: C_10  and  N_11
REMARK    3  A    between atoms: C_12  and  C_14
REMARK    4  A    between atoms: C_14  and  C_15
REMARK    5  A    between atoms: C_15  and  N_16
REMARK    6  A    between atoms: C_15  and  C_25
REMARK    7  A    between atoms: C_17  and  C_19
REMARK                            x       y       z     vdW  Elec       q    Type
REMARK                         _______ _______ _______ _____ _____    ______ ____
ROOT
ATOM      1  C   UNL     1      37.642   3.678  16.122  0.00  0.00    +0.000 C 
ENDROOT
BRANCH   1   2
ATOM      2  C   UNL     1      38.696   4.648  16.871  0.00  0.00    +0.000 A 
ATOM      3  C   UNL     1      39.619   5.247  16.042  0.00  0.00    +0.000 A 
ATOM      4  C   UNL     1      40.562   6.085  16.635  0.00  0.00    +0.000 A 
ATOM      5  C   UNL     1      40.508   6.255  18.002  0.00  0.00    +0.000 A 
ATOM      6  C   UNL     1      39.564   5.634  18.793  0.00  0.00    +0.000 A 
ATOM      7  C   UNL     1      38.622   4.797  18.197  0.00  0.00    +0.000 A 
ENDBRANCH   1   2
BRANCH   1   8
ATOM      8  N   UNL     1      37.131   4.757  15.092  0.00  0.00    +0.000 NA
ATOM      9  C   UNL     1      35.796   4.624  14.654  0.00  0.00    +0.000 C 
ATOM     10  O   UNL     1      35.147   3.663  15.118  0.00  0.00    +0.000 OA
BRANCH   9  11
ATOM     11  C   UNL     1      35.179   5.561  13.691  0.00  0.00    +0.000 A 
ATOM     12  C   UNL     1      34.065   6.308  13.997  0.00  0.00    +0.000 A 
ATOM     13  C   UNL     1      33.461   7.190  13.124  0.00  0.00    +0.000 A 
ATOM     14  C   UNL     1      34.015   7.322  11.869  0.00  0.00    +0.000 A 
ATOM     15  C   UNL     1      35.130   6.599  11.504  0.00  0.00    +0.000 A 
ATOM     16  C   UNL     1      35.703   5.722  12.423  0.00  0.00    +0.000 A 
ENDBRANCH   9  11
ENDBRANCH   1   8
BRANCH   1  17
ATOM     17  C   UNL     1      38.793   3.091  15.056  0.00  0.00    +0.000 C 
BRANCH  17  19
ATOM     18  N   UNL     1      38.659   0.636  15.368  0.00  0.00    +0.000 NA
ATOM     19  C   UNL     1      38.207   1.758  14.666  0.00  0.00    +0.000 C 
ATOM     20  O   UNL     1      37.362   1.595  13.776  0.00  0.00    +0.000 OA
BRANCH  18  27
ATOM     21  C   UNL     1      40.000  -0.940  13.422  0.00  0.00    +0.000 C 
ATOM     22  C   UNL     1      38.853  -1.506  14.213  0.00  0.00    +0.000 A 
ATOM     23  C   UNL     1      38.481  -2.813  13.957  0.00  0.00    +0.000 A 
ATOM     24  C   UNL     1      37.438  -3.320  14.692  0.00  0.00    +0.000 A 
ATOM     25  C   UNL     1      36.802  -2.531  15.646  0.00  0.00    +0.000 A 
ATOM     26  C   UNL     1      37.198  -1.218  15.882  0.00  0.00    +0.000 A 
ATOM     27  C   UNL     1      38.241  -0.699  15.152  0.00  0.00    +0.000 A 
BRANCH  26  28
ATOM     28  C   UNL     1      36.504  -0.383  16.911  0.00  0.00    +0.000 C 
ATOM     29  C   UNL     1      36.144  -1.280  18.085  0.00  0.00    +0.000 C 
ATOM     30  C   UNL     1      35.202   0.142  16.346  0.00  0.00    +0.000 C 
ENDBRANCH  26  28
ENDBRANCH  18  27
ENDBRANCH  17  19
ENDBRANCH   1  17
TORSDOF 7
ENDMDL
MODEL 4
REMARK VINA RESULT:      -7.7      1.353      4.805
REMARK  Name = 
REMARK  7 active torsions:
REMARK  status: ('A' for Active; 'I' for Inactive)
REMARK    1  A    between atoms: C_6  and  C_7
REMARK    2  A    between atoms: C_10  and  N_11
REMARK    3  A    between atoms: C_12  and  C_14
REMARK    4  A    between atoms: C_14  and  C_15
REMARK    5  A    between atoms: C_15  and  N_16
REMARK    6  A    between atoms: C_15  and  C_25
REMARK    7  A    between atoms: C_17  and  C_19
REMARK                            x       y       z     vdW  Elec       q    Type
REMARK                         _______ _______ _______ _____ _____    ______ ____
ROOT
ATOM      1  C   UNL     1      36.744   3.719  14.299  0.00  0.00    +0.000 C 
ENDROOT
BRANCH   1   2
ATOM      2  C   UNL     1      35.867   4.885  13.605  0.00  0.00    +0.000 A 
ATOM      3  C   UNL     1      34.851   5.388  14.390  0.00  0.00    +0.000 A 
ATOM      4  C   UNL     1      34.052   6.388  13.838  0.00  0.00    +0.000 A 
ATOM      5  C   UNL     1      34.329   6.803  12.553  0.00  0.00    +0.000 A 
ATOM      6  C   UNL     1      35.358   6.270  11.804  0.00  0.00    +0.000 A 
ATOM      7  C   UNL     1      36.156   5.271  12.358  0.00  0.00    +0.000 A 
ENDBRANCH   1   2
BRANCH   1   8
ATOM      8  N   UNL     1      37.343   4.624  15.442  0.00  0.00    +0.000 NA
ATOM      9  C   UNL     1      38.688   4.382  15.795  0.00  0.00    +0.000 C 
ATOM     10  O   UNL     1      39.276   3.473  15.172  0.00  0.00    +0.000 OA
BRANCH   9  11
ATOM     11  C   UNL     1      39.384   5.153  16.848  0.00  0.00    +0.000 A 
ATOM     12  C   UNL     1      40.517   5.891  16.596  0.00  0.00    +0.000 A 
ATOM     13  C   UNL     1      41.194   6.620  17.553  0.00  0.00    +0.000 A 
ATOM     14  C   UNL     1      40.697   6.598  18.839  0.00  0.00    +0.000 A 
ATOM     15  C   UNL     1      39.566   5.875  19.152  0.00  0.00    +0.000 A 
ATOM     16  C   UNL     1      38.919   5.157  18.148  0.00  0.00    +0.000 A 
ENDBRANCH   9  11
ENDBRANCH   1   8
BRANCH   1  17
ATOM     17  C   UNL     1      35.475   3.204  15.262  0.00  0.00    +0.000 C 
BRANCH  17  19
ATOM     18  N   UNL     1      35.947   0.771  15.295  0.00  0.00    +0.000 NA
ATOM     19  C   UNL     1      36.071   2.001  15.948  0.00  0.00    +0.000 C 
ATOM     20  O   UNL     1      36.656   2.033  17.039  0.00  0.00    +0.000 OA
BRANCH  18  27
ATOM     21  C   UNL     1      34.390  -0.699  17.161  0.00  0.00    +0.000 C 
ATOM     22  C   UNL     1      35.717  -1.223  16.684  0.00  0.00    +0.000 A 
ATOM     23  C   UNL     1      36.144  -2.438  17.187  0.00  0.00    +0.000 A 
ATOM     24  C   UNL     1      37.353  -2.909  16.738  0.00  0.00    +0.000 A 
ATOM     25  C   UNL     1      38.095  -2.174  15.816  0.00  0.00    +0.000 A 
ATOM     26  C   UNL     1      37.639  -0.953  15.328  0.00  0.00    +0.000 A 
ATOM     27  C   UNL     1      36.429  -0.472  15.770  0.00  0.00    +0.000 A 
BRANCH  26  28
ATOM     28  C   UNL     1      38.447  -0.176  14.338  0.00  0.00    +0.000 C 
ATOM     29  C   UNL     1      38.258  -0.810  12.969  0.00  0.00    +0.000 C 
ATOM     30  C   UNL     1      39.917  -0.295  14.676  0.00  0.00    +0.000 C 
ENDBRANCH  26  28
ENDBRANCH  18  27
ENDBRANCH  17  19
ENDBRANCH   1  17
TORSDOF 7
ENDMDL
MODEL 5
REMARK VINA RESULT:      -7.6      2.694      4.399
REMARK  Name = 
REMARK  7 active torsions:
REMARK  status: ('A' for Active; 'I' for Inactive)
REMARK    1  A    between atoms: C_6  and  C_7
REMARK    2  A    between atoms: C_10  and  N_11
REMARK    3  A    between atoms: C_12  and  C_14
REMARK    4  A    between atoms: C_14  and  C_15
REMARK    5  A    between atoms: C_15  and  N_16
REMARK    6  A    between atoms: C_15  and  C_25
REMARK    7  A    between atoms: C_17  and  C_19
REMARK                            x       y       z     vdW  Elec       q    Type
REMARK                         _______ _______ _______ _____ _____    ______ ____
ROOT
ATOM      1  C   UNL     1      37.615   3.340  15.383  0.00  0.00    +0.000 C 
ENDROOT
BRANCH   1   2
ATOM      2  C   UNL     1      38.516   4.319  16.301  0.00  0.00    +0.000 A 
ATOM      3  C   UNL     1      38.197   4.308  17.642  0.00  0.00    +0.000 A 
ATOM      4  C   UNL     1      38.932   5.143  18.481  0.00  0.00    +0.000 A 
ATOM      5  C   UNL     1      39.920   5.920  17.916  0.00  0.00    +0.000 A 
ATOM      6  C   UNL     1      40.205   5.899  16.565  0.00  0.00    +0.000 A 
ATOM      7  C   UNL     1      39.469   5.061  15.730  0.00  0.00    +0.000 A 
ENDBRANCH   1   2
BRANCH   1   8
ATOM      8  N   UNL     1      38.778   2.335  15.028  0.00  0.00    +0.000 NA
ATOM      9  C   UNL     1      39.151   2.261  13.669  0.00  0.00    +0.000 C 
ATOM     10  O   UNL     1      38.525   2.994  12.875  0.00  0.00    +0.000 OA
BRANCH   9  11
ATOM     11  C   UNL     1      40.225   1.366  13.188  0.00  0.00    +0.000 A 
ATOM     12  C   UNL     1      41.171   0.828  14.029  0.00  0.00    +0.000 A 
ATOM     13  C   UNL     1      42.188  -0.009  13.615  0.00  0.00    +0.000 A 
ATOM     14  C   UNL     1      42.252  -0.318  12.273  0.00  0.00    +0.000 A 
ATOM     15  C   UNL     1      41.332   0.192  11.382  0.00  0.00    +0.000 A 
ATOM     16  C   UNL     1      40.324   1.032  11.851  0.00  0.00    +0.000 A 
ENDBRANCH   9  11
ENDBRANCH   1   8
BRANCH   1  17
ATOM     17  C   UNL     1      37.112   2.420  16.688  0.00  0.00    +0.000 C 
BRANCH  17  19
ATOM     18  N   UNL     1      36.785  -0.030  16.505  0.00  0.00    +0.000 NA
ATOM     19  C   UNL     1      36.469   1.238  16.009  0.00  0.00    +0.000 C 
ATOM     20  O   UNL     1      35.688   1.318  15.051  0.00  0.00    +0.000 OA
BRANCH  18  27
ATOM     21  C   UNL     1      34.298  -1.019  17.454  0.00  0.00    +0.000 C 
ATOM     22  C   UNL     1      35.097  -1.792  16.440  0.00  0.00    +0.000 A 
ATOM     23  C   UNL     1      34.576  -2.992  15.993  0.00  0.00    +0.000 A 
ATOM     24  C   UNL     1      35.310  -3.682  15.061  0.00  0.00    +0.000 A 
ATOM     25  C   UNL     1      36.523  -3.173  14.605  0.00  0.00    +0.000 A 
ATOM     26  C   UNL     1      37.023  -1.962  15.073  0.00  0.00    +0.000 A 
ATOM     27  C   UNL     1      36.296  -1.261  16.006  0.00  0.00    +0.000 A 
BRANCH  26  28
ATOM     28  C   UNL     1      38.327  -1.428  14.572  0.00  0.00    +0.000 C 
ATOM     29  C   UNL     1      38.531  -1.929  13.152  0.00  0.00    +0.000 C 
ATOM     30  C   UNL     1      39.460  -1.992  15.402  0.00  0.00    +0.000 C 
ENDBRANCH  26  28
ENDBRANCH  18  27
ENDBRANCH  17  19
ENDBRANCH   1  17
TORSDOF 7
ENDMDL
MODEL 6
REMARK VINA RESULT:      -7.5      3.606      8.650
REMARK  Name = 
REMARK  7 active torsions:
REMARK  status: ('A' for Active; 'I' for Inactive)
REMARK    1  A    between atoms: C_6  and  C_7
REMARK    2  A    between atoms: C_10  and  N_11
REMARK    3  A    between atoms: C_12  and  C_14
REMARK    4  A    between atoms: C_14  and  C_15
REMARK    5  A    between atoms: C_15  and  N_16
REMARK    6  A    between atoms: C_15  and  C_25
REMARK    7  A    between atoms: C_17  and  C_19
REMARK                            x       y       z     vdW  Elec       q    Type
REMARK                         _______ _______ _______ _____ _____    ______ ____
ROOT
ATOM      1  C   UNL     1      40.428  -1.641  14.881  0.00  0.00    +0.000 C 
ENDROOT
BRANCH   1   2
ATOM      2  C   UNL     1      39.266  -2.649  15.376  0.00  0.00    +0.000 A 
ATOM      3  C   UNL     1      38.410  -3.074  14.383  0.00  0.00    +0.000 A 
ATOM      4  C   UNL     1      37.379  -3.936  14.754  0.00  0.00    +0.000 A 
ATOM      5  C   UNL     1      37.286  -4.300  16.080  0.00  0.00    +0.000 A 
ATOM      6  C   UNL     1      38.168  -3.849  17.041  0.00  0.00    +0.000 A 
ATOM      7  C   UNL     1      39.198  -2.989  16.667  0.00  0.00    +0.000 A 
ENDBRANCH   1   2
BRANCH   1   8
ATOM      8  N   UNL     1      41.086  -2.642  13.855  0.00  0.00    +0.000 NA
ATOM      9  C   UNL     1      42.397  -2.335  13.430  0.00  0.00    +0.000 C 
ATOM     10  O   UNL     1      42.911  -1.299  13.903  0.00  0.00    +0.000 OA
BRANCH   9  11
ATOM     11  C   UNL     1      43.140  -3.181  12.473  0.00  0.00    +0.000 A 
ATOM     12  C   UNL     1      44.417  -3.628  12.718  0.00  0.00    +0.000 A 
ATOM     13  C   UNL     1      45.142  -4.417  11.848  0.00  0.00    +0.000 A 
ATOM     14  C   UNL     1      44.540  -4.772  10.660  0.00  0.00    +0.000 A 
ATOM     15  C   UNL     1      43.262  -4.353  10.357  0.00  0.00    +0.000 A 
ATOM     16  C   UNL     1      42.573  -3.559  11.271  0.00  0.00    +0.000 A 
ENDBRANCH   9  11
ENDBRANCH   1   8
BRANCH   1  17
ATOM     17  C   UNL     1      39.459  -0.947  13.704  0.00  0.00    +0.000 C 
BRANCH  17  19
ATOM     18  N   UNL     1      37.291   0.087  14.311  0.00  0.00    +0.000 NA
ATOM     19  C   UNL     1      38.675   0.064  14.501  0.00  0.00    +0.000 C 
ATOM     20  O   UNL     1      39.174   0.866  15.302  0.00  0.00    +0.000 OA
BRANCH  18  27
ATOM     21  C   UNL     1      36.736   2.617  13.146  0.00  0.00    +0.000 C 
ATOM     22  C   UNL     1      36.081   2.204  14.436  0.00  0.00    +0.000 A 
ATOM     23  C   UNL     1      35.207   3.098  15.026  0.00  0.00    +0.000 A 
ATOM     24  C   UNL     1      34.610   2.705  16.198  0.00  0.00    +0.000 A 
ATOM     25  C   UNL     1      34.891   1.456  16.746  0.00  0.00    +0.000 A 
ATOM     26  C   UNL     1      35.777   0.577  16.129  0.00  0.00    +0.000 A 
ATOM     27  C   UNL     1      36.380   0.959  14.954  0.00  0.00    +0.000 A 
BRANCH  26  28
ATOM     28  C   UNL     1      36.068  -0.762  16.730  0.00  0.00    +0.000 C 
ATOM     29  C   UNL     1      34.780  -1.570  16.733  0.00  0.00    +0.000 C 
ATOM     30  C   UNL     1      36.482  -0.591  18.175  0.00  0.00    +0.000 C 
ENDBRANCH  26  28
ENDBRANCH  18  27
ENDBRANCH  17  19
ENDBRANCH   1  17
TORSDOF 7
ENDMDL
MODEL 7
REMARK VINA RESULT:      -7.5      2.512      7.659
REMARK  Name = 
REMARK  7 active torsions:
REMARK  status: ('A' for Active; 'I' for Inactive)
REMARK    1  A    between atoms: C_6  and  C_7
REMARK    2  A    between atoms: C_10  and  N_11
REMARK    3  A    between atoms: C_12  and  C_14
REMARK    4  A    between atoms: C_14  and  C_15
REMARK    5  A    between atoms: C_15  and  N_16
REMARK    6  A    between atoms: C_15  and  C_25
REMARK    7  A    between atoms: C_17  and  C_19
REMARK                            x       y       z     vdW  Elec       q    Type
REMARK                         _______ _______ _______ _____ _____    ______ ____
ROOT
ATOM      1  C   UNL     1      38.924  -0.030  13.763  0.00  0.00    +0.000 C 
ENDROOT
BRANCH   1   2
ATOM      2  C   UNL     1      40.023  -1.174  13.454  0.00  0.00    +0.000 A 
ATOM      3  C   UNL     1      39.817  -1.870  12.282  0.00  0.00    +0.000 A 
ATOM      4  C   UNL     1      40.726  -2.879  11.969  0.00  0.00    +0.000 A 
ATOM      5  C   UNL     1      41.763  -3.111  12.848  0.00  0.00    +0.000 A 
ATOM      6  C   UNL     1      41.930  -2.387  14.011  0.00  0.00    +0.000 A 
ATOM      7  C   UNL     1      41.020  -1.379  14.320  0.00  0.00    +0.000 A 
ENDBRANCH   1   2
BRANCH   1   8
ATOM      8  N   UNL     1      38.821  -0.318  15.310  0.00  0.00    +0.000 NA
ATOM      9  C   UNL     1      37.587  -0.825  15.774  0.00  0.00    +0.000 C 
ATOM     10  O   UNL     1      36.694  -0.993  14.918  0.00  0.00    +0.000 OA
BRANCH   9  11
ATOM     11  C   UNL     1      37.344  -1.143  17.197  0.00  0.00    +0.000 A 
ATOM     12  C   UNL     1      36.342  -0.547  17.927  0.00  0.00    +0.000 A 
ATOM     13  C   UNL     1      36.088  -0.817  19.257  0.00  0.00    +0.000 A 
ATOM     14  C   UNL     1      36.895  -1.742  19.884  0.00  0.00    +0.000 A 
ATOM     15  C   UNL     1      37.916  -2.372  19.205  0.00  0.00    +0.000 A 
ATOM     16  C   UNL     1      38.130  -2.064  17.862  0.00  0.00    +0.000 A 
ENDBRANCH   9  11
ENDBRANCH   1   8
BRANCH   1  17
ATOM     17  C   UNL     1      40.082   1.160  13.982  0.00  0.00    +0.000 C 
BRANCH  17  19
ATOM     18  N   UNL     1      37.952   2.353  13.556  0.00  0.00    +0.000 NA
ATOM     19  C   UNL     1      39.235   2.400  14.108  0.00  0.00    +0.000 C 
ATOM     20  O   UNL     1      39.600   3.446  14.662  0.00  0.00    +0.000 OA
BRANCH  18  27
ATOM     21  C   UNL     1      37.937   4.214  11.411  0.00  0.00    +0.000 C 
ATOM     22  C   UNL     1      36.962   4.344  12.550  0.00  0.00    +0.000 A 
ATOM     23  C   UNL     1      36.067   5.397  12.510  0.00  0.00    +0.000 A 
ATOM     24  C   UNL     1      35.178   5.500  13.550  0.00  0.00    +0.000 A 
ATOM     25  C   UNL     1      35.198   4.570  14.587  0.00  0.00    +0.000 A 
ATOM     26  C   UNL     1      36.112   3.520  14.600  0.00  0.00    +0.000 A 
ATOM     27  C   UNL     1      37.008   3.407  13.563  0.00  0.00    +0.000 A 
BRANCH  26  28
ATOM     28  C   UNL     1      36.122   2.529  15.721  0.00  0.00    +0.000 C 
ATOM     29  C   UNL     1      34.682   2.258  16.126  0.00  0.00    +0.000 C 
ATOM     30  C   UNL     1      36.809   3.131  16.926  0.00  0.00    +0.000 C 
ENDBRANCH  26  28
ENDBRANCH  18  27
ENDBRANCH  17  19
ENDBRANCH   1  17
TORSDOF 7
ENDMDL
MODEL 8
REMARK VINA RESULT:      -7.4      2.845      7.841
REMARK  Name = 
REMARK  7 active torsions:
REMARK  status: ('A' for Active; 'I' for Inactive)
REMARK    1  A    between atoms: C_6  and  C_7
REMARK    2  A    between atoms: C_10  and  N_11
REMARK    3  A    between atoms: C_12  and  C_14
REMARK    4  A    between atoms: C_14  and  C_15
REMARK    5  A    between atoms: C_15  and  N_16
REMARK    6  A    between atoms: C_15  and  C_25
REMARK    7  A    between atoms: C_17  and  C_19
REMARK                            x       y       z     vdW  Elec       q    Type
REMARK                         _______ _______ _______ _____ _____    ______ ____
ROOT
ATOM      1  C   UNL     1      39.012  -0.571  13.956  0.00  0.00    +0.000 C 
ENDROOT
BRANCH   1   2
ATOM      2  C   UNL     1      40.289  -1.497  13.602  0.00  0.00    +0.000 A 
ATOM      3  C   UNL     1      41.430  -1.204  14.317  0.00  0.00    +0.000 A 
ATOM      4  C   UNL     1      42.568  -1.962  14.044  0.00  0.00    +0.000 A 
ATOM      5  C   UNL     1      42.474  -2.946  13.084  0.00  0.00    +0.000 A 
ATOM      6  C   UNL     1      41.309  -3.205  12.392  0.00  0.00    +0.000 A 
ATOM      7  C   UNL     1      40.173  -2.446  12.668  0.00  0.00    +0.000 A 
ENDBRANCH   1   2
BRANCH   1   8
ATOM      8  N   UNL     1      39.054  -0.825  15.512  0.00  0.00    +0.000 NA
ATOM      9  C   UNL     1      38.103  -1.733  16.026  0.00  0.00    +0.000 C 
ATOM     10  O   UNL     1      37.318  -2.248  15.203  0.00  0.00    +0.000 OA
BRANCH   9  11
ATOM     11  C   UNL     1      38.023  -2.070  17.463  0.00  0.00    +0.000 A 
ATOM     12  C   UNL     1      38.737  -3.105  18.021  0.00  0.00    +0.000 A 
ATOM     13  C   UNL     1      38.685  -3.450  19.356  0.00  0.00    +0.000 A 
ATOM     14  C   UNL     1      37.863  -2.705  20.174  0.00  0.00    +0.000 A 
ATOM     15  C   UNL     1      37.122  -1.656  19.673  0.00  0.00    +0.000 A 
ATOM     16  C   UNL     1      37.211  -1.349  18.316  0.00  0.00    +0.000 A 
ENDBRANCH   9  11
ENDBRANCH   1   8
BRANCH   1  17
ATOM     17  C   UNL     1      39.934   0.821  14.078  0.00  0.00    +0.000 C 
BRANCH  17  19
ATOM     18  N   UNL     1      37.682   1.836  13.881  0.00  0.00    +0.000 NA
ATOM     19  C   UNL     1      38.915   1.831  14.540  0.00  0.00    +0.000 C 
ATOM     20  O   UNL     1      39.098   2.646  15.453  0.00  0.00    +0.000 OA
BRANCH  18  27
ATOM     21  C   UNL     1      35.665   1.003  15.698  0.00  0.00    +0.000 C 
ATOM     22  C   UNL     1      35.587   2.346  15.025  0.00  0.00    +0.000 A 
ATOM     23  C   UNL     1      34.503   3.151  15.325  0.00  0.00    +0.000 A 
ATOM     24  C   UNL     1      34.448   4.377  14.710  0.00  0.00    +0.000 A 
ATOM     25  C   UNL     1      35.453   4.767  13.829  0.00  0.00    +0.000 A 
ATOM     26  C   UNL     1      36.532   3.935  13.547  0.00  0.00    +0.000 A 
ATOM     27  C   UNL     1      36.599   2.705  14.157  0.00  0.00    +0.000 A 
BRANCH  26  28
ATOM     28  C   UNL     1      37.605   4.369  12.598  0.00  0.00    +0.000 C 
ATOM     29  C   UNL     1      38.371   5.514  13.241  0.00  0.00    +0.000 C 
ATOM     30  C   UNL     1      36.976   4.917  11.336  0.00  0.00    +0.000 C 
ENDBRANCH  26  28
ENDBRANCH  18  27
ENDBRANCH  17  19
ENDBRANCH   1  17
TORSDOF 7
ENDMDL
MODEL 9
REMARK VINA RESULT:      -7.3      3.126      7.935
REMARK  Name = 
REMARK  7 active torsions:
REMARK  status: ('A' for Active; 'I' for Inactive)
REMARK    1  A    between atoms: C_6  and  C_7
REMARK    2  A    between atoms: C_10  and  N_11
REMARK    3  A    between atoms: C_12  and  C_14
REMARK    4  A    between atoms: C_14  and  C_15
REMARK    5  A    between atoms: C_15  and  N_16
REMARK    6  A    between atoms: C_15  and  C_25
REMARK    7  A    between atoms: C_17  and  C_19
REMARK                            x       y       z     vdW  Elec       q    Type
REMARK                         _______ _______ _______ _____ _____    ______ ____
ROOT
ATOM      1  C   UNL     1      39.230  -0.818  13.854  0.00  0.00    +0.000 C 
ENDROOT
BRANCH   1   2
ATOM      2  C   UNL     1      40.501  -1.572  13.200  0.00  0.00    +0.000 A 
ATOM      3  C   UNL     1      41.666  -0.835  13.188  0.00  0.00    +0.000 A 
ATOM      4  C   UNL     1      42.793  -1.429  12.623  0.00  0.00    +0.000 A 
ATOM      5  C   UNL     1      42.666  -2.705  12.116  0.00  0.00    +0.000 A 
ATOM      6  C   UNL     1      41.477  -3.406  12.149  0.00  0.00    +0.000 A 
ATOM      7  C   UNL     1      40.353  -2.809  12.716  0.00  0.00    +0.000 A 
ENDBRANCH   1   2
BRANCH   1   8
ATOM      8  N   UNL     1      39.435  -1.389  15.310  0.00  0.00    +0.000 NA
ATOM      9  C   UNL     1      38.483  -2.331  15.755  0.00  0.00    +0.000 C 
ATOM     10  O   UNL     1      37.567  -2.622  14.958  0.00  0.00    +0.000 OA
BRANCH   9  11
ATOM     11  C   UNL     1      38.547  -2.952  17.096  0.00  0.00    +0.000 A 
ATOM     12  C   UNL     1      38.664  -4.310  17.276  0.00  0.00    +0.000 A 
ATOM     13  C   UNL     1      38.725  -4.925  18.510  0.00  0.00    +0.000 A 
ATOM     14  C   UNL     1      38.659  -4.118  19.626  0.00  0.00    +0.000 A 
ATOM     15  C   UNL     1      38.540  -2.750  19.509  0.00  0.00    +0.000 A 
ATOM     16  C   UNL     1      38.485  -2.179  18.239  0.00  0.00    +0.000 A 
ENDBRANCH   9  11
ENDBRANCH   1   8
BRANCH   1  17
ATOM     17  C   UNL     1      40.103   0.570  14.190  0.00  0.00    +0.000 C 
BRANCH  17  19
ATOM     18  N   UNL     1      37.706   1.165  14.397  0.00  0.00    +0.000 NA
ATOM     19  C   UNL     1      39.030   1.500  14.697  0.00  0.00    +0.000 C 
ATOM     20  O   UNL     1      39.244   2.528  15.352  0.00  0.00    +0.000 OA
BRANCH  18  27
ATOM     21  C   UNL     1      36.978   3.458  12.887  0.00  0.00    +0.000 C 
ATOM     22  C   UNL     1      36.165   3.032  14.080  0.00  0.00    +0.000 A 
ATOM     23  C   UNL     1      35.060   3.795  14.407  0.00  0.00    +0.000 A 
ATOM     24  C   UNL     1      34.322   3.390  15.492  0.00  0.00    +0.000 A 
ATOM     25  C   UNL     1      34.694   2.258  16.212  0.00  0.00    +0.000 A 
ATOM     26  C   UNL     1      35.813   1.509  15.858  0.00  0.00    +0.000 A 
ATOM     27  C   UNL     1      36.559   1.904  14.773  0.00  0.00    +0.000 A 
BRANCH  26  28
ATOM     28  C   UNL     1      36.199   0.295  16.642  0.00  0.00    +0.000 C 
ATOM     29  C   UNL     1      35.155  -0.782  16.392  0.00  0.00    +0.000 C 
ATOM     30  C   UNL     1      36.158   0.610  18.121  0.00  0.00    +0.000 C 
ENDBRANCH  26  28
ENDBRANCH  18  27
ENDBRANCH  17  19
ENDBRANCH   1  17
TORSDOF 7
ENDMDL
MODEL 10
REMARK VINA RESULT:      -7.1     25.361     28.432
REMARK  Name = 
REMARK  7 active torsions:
REMARK  status: ('A' for Active; 'I' for Inactive)
REMARK    1  A    between atoms: C_6  and  C_7
REMARK    2  A    between atoms: C_10  and  N_11
REMARK    3  A    between atoms: C_12  and  C_14
REMARK    4  A    between atoms: C_14  and  C_15
REMARK    5  A    between atoms: C_15  and  N_16
REMARK    6  A    between atoms: C_15  and  C_25
REMARK    7  A    between atoms: C_17  and  C_19
REMARK                            x       y       z     vdW  Elec       q    Type
REMARK                         _______ _______ _______ _____ _____    ______ ____
ROOT
ATOM      1  C   UNL     1      12.664  -0.523  27.211  0.00  0.00    +0.000 C 
ENDROOT
BRANCH   1   2
ATOM      2  C   UNL     1      12.598  -2.108  27.518  0.00  0.00    +0.000 A 
ATOM      3  C   UNL     1      12.402  -2.431  28.844  0.00  0.00    +0.000 A 
ATOM      4  C   UNL     1      12.350  -3.785  29.171  0.00  0.00    +0.000 A 
ATOM      5  C   UNL     1      12.499  -4.702  28.153  0.00  0.00    +0.000 A 
ATOM      6  C   UNL     1      12.694  -4.332  26.838  0.00  0.00    +0.000 A 
ATOM      7  C   UNL     1      12.744  -2.978  26.514  0.00  0.00    +0.000 A 
ENDBRANCH   1   2
BRANCH   1   8
ATOM      8  N   UNL     1      13.950  -0.586  26.301  0.00  0.00    +0.000 NA
ATOM      9  C   UNL     1      15.157  -0.149  26.888  0.00  0.00    +0.000 C 
ATOM     10  O   UNL     1      15.093   0.250  28.070  0.00  0.00    +0.000 OA
BRANCH   9  11
ATOM     11  C   UNL     1      16.442  -0.152  26.157  0.00  0.00    +0.000 A 
ATOM     12  C   UNL     1      17.108   1.005  25.828  0.00  0.00    +0.000 A 
ATOM     13  C   UNL     1      18.307   1.041  25.145  0.00  0.00    +0.000 A 
ATOM     14  C   UNL     1      18.863  -0.164  24.772  0.00  0.00    +0.000 A 
ATOM     15  C   UNL     1      18.241  -1.357  25.073  0.00  0.00    +0.000 A 
ATOM     16  C   UNL     1      17.032  -1.338  25.766  0.00  0.00    +0.000 A 
ENDBRANCH   9  11
ENDBRANCH   1   8
BRANCH   1  17
ATOM     17  C   UNL     1      11.632  -0.636  25.897  0.00  0.00    +0.000 C 
BRANCH  17  19
ATOM     18  N   UNL     1      10.004   1.230  25.789  0.00  0.00    +0.000 NA
ATOM     19  C   UNL     1      10.389   0.041  26.416  0.00  0.00    +0.000 C 
ATOM     20  O   UNL     1       9.697  -0.383  27.351  0.00  0.00    +0.000 OA
BRANCH  18  27
ATOM     21  C   UNL     1       7.543   0.782  24.444  0.00  0.00    +0.000 C 
ATOM     22  C   UNL     1       7.661   1.849  25.499  0.00  0.00    +0.000 A 
ATOM     23  C   UNL     1       6.533   2.595  25.783  0.00  0.00    +0.000 A 
ATOM     24  C   UNL     1       6.652   3.560  26.753  0.00  0.00    +0.000 A 
ATOM     25  C   UNL     1       7.867   3.755  27.404  0.00  0.00    +0.000 A 
ATOM     26  C   UNL     1       8.986   2.988  27.096  0.00  0.00    +0.000 A 
ATOM     27  C   UNL     1       8.879   2.019  26.127  0.00  0.00    +0.000 A 
BRANCH  26  28
ATOM     28  C   UNL     1      10.285   3.210  27.805  0.00  0.00    +0.000 C 
ATOM     29  C   UNL     1       9.984   3.825  29.162  0.00  0.00    +0.000 C 
ATOM     30  C   UNL     1      11.114   4.219  27.041  0.00  0.00    +0.000 C 
ENDBRANCH  26  28
ENDBRANCH  18  27
ENDBRANCH  17  19
ENDBRANCH   1  17
TORSDOF 7
ENDMDL
