MODEL 1
REMARK VINA RESULT:      -6.0      0.000      0.000
REMARK  Name = 
REMARK  4 active torsions:
REMARK  status: ('A' for Active; 'I' for Inactive)
REMARK    1  A    between atoms: C_2  and  N_3
REMARK    2  A    between atoms: C_6  and  C_7
REMARK    3  A    between atoms: C_12  and  O_13
REMARK    4  A    between atoms: C_15  and  O_16
REMARK                            x       y       z     vdW  Elec       q    Type
REMARK                         _______ _______ _______ _____ _____    ______ ____
ROOT
ATOM      1  C   UNL     1      25.773  24.026  24.602  0.00  0.00    +0.000 A 
ATOM      2  C   UNL     1      24.994  23.171  23.860  0.00  0.00    +0.000 A 
ATOM      3  N   UNL     1      25.591  22.990  22.654  0.00  0.00    +0.000 NA
ATOM      4  C   UNL     1      26.728  23.707  22.608  0.00  0.00    +0.000 A 
ATOM      5  C   UNL     1      27.688  23.868  21.626  0.00  0.00    +0.000 A 
ATOM      6  C   UNL     1      28.762  24.684  21.879  0.00  0.00    +0.000 A 
ATOM      7  C   UNL     1      28.913  25.349  23.080  0.00  0.00    +0.000 A 
ATOM      8  C   UNL     1      27.949  25.180  24.052  0.00  0.00    +0.000 A 
ATOM      9  C   UNL     1      26.852  24.356  23.816  0.00  0.00    +0.000 A 
ENDROOT
BRANCH   1  13
ATOM     10  N   UNL     1      26.052  23.724  29.518  0.00  0.00    +0.000 NA
ATOM     11  C   UNL     1      25.669  24.292  28.242  0.00  0.00    +0.000 A 
ATOM     12  N   UNL     1      25.932  23.845  27.029  0.00  0.00    +0.000 NA
ATOM     13  C   UNL     1      25.497  24.502  25.991  0.00  0.00    +0.000 A 
ATOM     14  C   UNL     1      24.774  25.649  26.241  0.00  0.00    +0.000 A 
ATOM     15  S   UNL     1      24.768  25.705  27.943  0.00  0.00    +0.000 S 
BRANCH  10  17
ATOM     16  C   UNL     1      26.340  21.496  30.503  0.00  0.00    +0.000 C 
ATOM     17  C   UNL     1      26.823  22.508  29.490  0.00  0.00    +0.000 C 
ENDBRANCH  10  17
ENDBRANCH   1  13
BRANCH   6  18
ATOM     18  O   UNL     1      29.763  24.882  20.919  0.00  0.00    +0.000 OA
ATOM     19  C   UNL     1      29.655  25.971  20.011  0.00  0.00    +0.000 C 
ENDBRANCH   6  18
BRANCH   7  20
ATOM     20  O   UNL     1      30.019  26.173  23.304  0.00  0.00    +0.000 OA
ATOM     21  C   UNL     1      30.823  25.939  24.442  0.00  0.00    +0.000 C 
ENDBRANCH   7  20
TORSDOF 4
ENDMDL
MODEL 2
REMARK VINA RESULT:      -6.0      1.868      2.383
REMARK  Name = 
REMARK  4 active torsions:
REMARK  status: ('A' for Active; 'I' for Inactive)
REMARK    1  A    between atoms: C_2  and  N_3
REMARK    2  A    between atoms: C_6  and  C_7
REMARK    3  A    between atoms: C_12  and  O_13
REMARK    4  A    between atoms: C_15  and  O_16
REMARK                            x       y       z     vdW  Elec       q    Type
REMARK                         _______ _______ _______ _____ _____    ______ ____
ROOT
ATOM      1  C   UNL     1      26.585  23.221  25.557  0.00  0.00    +0.000 A 
ATOM      2  C   UNL     1      25.374  23.093  24.919  0.00  0.00    +0.000 A 
ATOM      3  N   UNL     1      25.569  23.296  23.592  0.00  0.00    +0.000 NA
ATOM      4  C   UNL     1      26.870  23.551  23.366  0.00  0.00    +0.000 A 
ATOM      5  C   UNL     1      27.580  23.822  22.210  0.00  0.00    +0.000 A 
ATOM      6  C   UNL     1      28.931  24.044  22.301  0.00  0.00    +0.000 A 
ATOM      7  C   UNL     1      29.602  24.006  23.507  0.00  0.00    +0.000 A 
ATOM      8  C   UNL     1      28.885  23.735  24.653  0.00  0.00    +0.000 A 
ATOM      9  C   UNL     1      27.513  23.506  24.583  0.00  0.00    +0.000 A 
ENDROOT
BRANCH   1  13
ATOM     10  N   UNL     1      25.907  24.405  30.298  0.00  0.00    +0.000 NA
ATOM     11  C   UNL     1      26.471  23.681  29.177  0.00  0.00    +0.000 A 
ATOM     12  N   UNL     1      26.224  23.832  27.890  0.00  0.00    +0.000 NA
ATOM     13  C   UNL     1      26.838  23.078  27.023  0.00  0.00    +0.000 A 
ATOM     14  C   UNL     1      27.727  22.152  27.525  0.00  0.00    +0.000 A 
ATOM     15  S   UNL     1      27.621  22.425  29.202  0.00  0.00    +0.000 S 
BRANCH  10  17
ATOM     16  C   UNL     1      25.560  26.810  29.971  0.00  0.00    +0.000 C 
ATOM     17  C   UNL     1      24.944  25.431  29.997  0.00  0.00    +0.000 C 
ENDBRANCH  10  17
ENDBRANCH   1  13
BRANCH   6  18
ATOM     18  O   UNL     1      29.697  24.322  21.161  0.00  0.00    +0.000 OA
ATOM     19  C   UNL     1      29.534  25.570  20.497  0.00  0.00    +0.000 C 
ENDBRANCH   6  18
BRANCH   7  20
ATOM     20  O   UNL     1      30.980  24.238  23.562  0.00  0.00    +0.000 OA
ATOM     21  C   UNL     1      31.762  23.479  24.461  0.00  0.00    +0.000 C 
ENDBRANCH   7  20
TORSDOF 4
ENDMDL
MODEL 3
REMARK VINA RESULT:      -5.8      2.666      2.978
REMARK  Name = 
REMARK  4 active torsions:
REMARK  status: ('A' for Active; 'I' for Inactive)
REMARK    1  A    between atoms: C_2  and  N_3
REMARK    2  A    between atoms: C_6  and  C_7
REMARK    3  A    between atoms: C_12  and  O_13
REMARK    4  A    between atoms: C_15  and  O_16
REMARK                            x       y       z     vdW  Elec       q    Type
REMARK                         _______ _______ _______ _____ _____    ______ ____
ROOT
ATOM      1  C   UNL     1      26.934  23.380  26.161  0.00  0.00    +0.000 A 
ATOM      2  C   UNL     1      25.636  23.399  25.709  0.00  0.00    +0.000 A 
ATOM      3  N   UNL     1      25.657  23.583  24.365  0.00  0.00    +0.000 NA
ATOM      4  C   UNL     1      26.931  23.683  23.949  0.00  0.00    +0.000 A 
ATOM      5  C   UNL     1      27.491  23.872  22.698  0.00  0.00    +0.000 A 
ATOM      6  C   UNL     1      28.858  23.933  22.587  0.00  0.00    +0.000 A 
ATOM      7  C   UNL     1      29.689  23.810  23.683  0.00  0.00    +0.000 A 
ATOM      8  C   UNL     1      29.120  23.621  24.925  0.00  0.00    +0.000 A 
ATOM      9  C   UNL     1      27.736  23.557  25.059  0.00  0.00    +0.000 A 
ENDROOT
BRANCH   1  13
ATOM     10  N   UNL     1      30.308  22.543  29.662  0.00  0.00    +0.000 NA
ATOM     11  C   UNL     1      28.990  22.811  29.125  0.00  0.00    +0.000 A 
ATOM     12  N   UNL     1      28.629  22.964  27.865  0.00  0.00    +0.000 NA
ATOM     13  C   UNL     1      27.380  23.202  27.576  0.00  0.00    +0.000 A 
ATOM     14  C   UNL     1      26.502  23.279  28.636  0.00  0.00    +0.000 A 
ATOM     15  S   UNL     1      27.525  23.006  29.970  0.00  0.00    +0.000 S 
BRANCH  10  17
ATOM     16  C   UNL     1      32.509  21.550  29.233  0.00  0.00    +0.000 C 
ATOM     17  C   UNL     1      31.388  22.423  28.718  0.00  0.00    +0.000 C 
ENDBRANCH  10  17
ENDBRANCH   1  13
BRANCH   6  18
ATOM     18  O   UNL     1      29.476  24.123  21.344  0.00  0.00    +0.000 OA
ATOM     19  C   UNL     1      29.428  25.404  20.729  0.00  0.00    +0.000 C 
ENDBRANCH   6  18
BRANCH   7  20
ATOM     20  O   UNL     1      31.078  23.877  23.534  0.00  0.00    +0.000 OA
ATOM     21  C   UNL     1      31.898  23.475  24.612  0.00  0.00    +0.000 C 
ENDBRANCH   7  20
TORSDOF 4
ENDMDL
MODEL 4
REMARK VINA RESULT:      -5.7     18.785     20.150
REMARK  Name = 
REMARK  4 active torsions:
REMARK  status: ('A' for Active; 'I' for Inactive)
REMARK    1  A    between atoms: C_2  and  N_3
REMARK    2  A    between atoms: C_6  and  C_7
REMARK    3  A    between atoms: C_12  and  O_13
REMARK    4  A    between atoms: C_15  and  O_16
REMARK                            x       y       z     vdW  Elec       q    Type
REMARK                         _______ _______ _______ _____ _____    ______ ____
ROOT
ATOM      1  C   UNL     1      18.027  10.807  37.328  0.00  0.00    +0.000 A 
ATOM      2  C   UNL     1      18.458   9.514  37.503  0.00  0.00    +0.000 A 
ATOM      3  N   UNL     1      19.681   9.549  38.090  0.00  0.00    +0.000 NA
ATOM      4  C   UNL     1      20.042  10.828  38.292  0.00  0.00    +0.000 A 
ATOM      5  C   UNL     1      21.172  11.400  38.847  0.00  0.00    +0.000 A 
ATOM      6  C   UNL     1      21.252  12.769  38.919  0.00  0.00    +0.000 A 
ATOM      7  C   UNL     1      20.243  13.589  38.456  0.00  0.00    +0.000 A 
ATOM      8  C   UNL     1      19.121  13.007  37.905  0.00  0.00    +0.000 A 
ATOM      9  C   UNL     1      19.019  11.621  37.823  0.00  0.00    +0.000 A 
ENDROOT
BRANCH   1  13
ATOM     10  N   UNL     1      15.077  11.908  33.530  0.00  0.00    +0.000 NA
ATOM     11  C   UNL     1      15.441  11.728  34.920  0.00  0.00    +0.000 A 
ATOM     12  N   UNL     1      16.597  11.343  35.427  0.00  0.00    +0.000 NA
ATOM     13  C   UNL     1      16.733  11.239  36.719  0.00  0.00    +0.000 A 
ATOM     14  C   UNL     1      15.630  11.548  37.486  0.00  0.00    +0.000 A 
ATOM     15  S   UNL     1      14.477  11.965  36.304  0.00  0.00    +0.000 S 
BRANCH  10  17
ATOM     16  C   UNL     1      15.509  11.324  31.188  0.00  0.00    +0.000 C 
ATOM     17  C   UNL     1      16.092  11.636  32.547  0.00  0.00    +0.000 C 
ENDBRANCH  10  17
ENDBRANCH   1  13
BRANCH   6  18
ATOM     18  O   UNL     1      22.375  13.400  39.472  0.00  0.00    +0.000 OA
ATOM     19  C   UNL     1      23.628  12.727  39.465  0.00  0.00    +0.000 C 
ENDBRANCH   6  18
BRANCH   7  20
ATOM     20  O   UNL     1      20.358  14.979  38.545  0.00  0.00    +0.000 OA
ATOM     21  C   UNL     1      19.662  15.656  39.571  0.00  0.00    +0.000 C 
ENDBRANCH   7  20
TORSDOF 4
ENDMDL
MODEL 5
REMARK VINA RESULT:      -5.7      3.692      4.804
REMARK  Name = 
REMARK  4 active torsions:
REMARK  status: ('A' for Active; 'I' for Inactive)
REMARK    1  A    between atoms: C_2  and  N_3
REMARK    2  A    between atoms: C_6  and  C_7
REMARK    3  A    between atoms: C_12  and  O_13
REMARK    4  A    between atoms: C_15  and  O_16
REMARK                            x       y       z     vdW  Elec       q    Type
REMARK                         _______ _______ _______ _____ _____    ______ ____
ROOT
ATOM      1  C   UNL     1      30.743  22.936  26.367  0.00  0.00    +0.000 A 
ATOM      2  C   UNL     1      31.801  23.059  25.499  0.00  0.00    +0.000 A 
ATOM      3  N   UNL     1      31.307  23.198  24.243  0.00  0.00    +0.000 NA
ATOM      4  C   UNL     1      29.964  23.166  24.287  0.00  0.00    +0.000 A 
ATOM      5  C   UNL     1      28.997  23.263  23.302  0.00  0.00    +0.000 A 
ATOM      6  C   UNL     1      27.675  23.195  23.665  0.00  0.00    +0.000 A 
ATOM      7  C   UNL     1      27.281  23.032  24.978  0.00  0.00    +0.000 A 
ATOM      8  C   UNL     1      28.253  22.936  25.951  0.00  0.00    +0.000 A 
ATOM      9  C   UNL     1      29.601  23.004  25.605  0.00  0.00    +0.000 A 
ENDROOT
BRANCH   1  13
ATOM     10  N   UNL     1      28.820  22.722  30.906  0.00  0.00    +0.000 NA
ATOM     11  C   UNL     1      29.863  22.678  29.902  0.00  0.00    +0.000 A 
ATOM     12  N   UNL     1      29.758  22.836  28.596  0.00  0.00    +0.000 NA
ATOM     13  C   UNL     1      30.823  22.762  27.850  0.00  0.00    +0.000 A 
ATOM     14  C   UNL     1      32.017  22.517  28.494  0.00  0.00    +0.000 A 
ATOM     15  S   UNL     1      31.530  22.411  30.122  0.00  0.00    +0.000 S 
BRANCH  10  17
ATOM     16  C   UNL     1      26.661  21.701  30.350  0.00  0.00    +0.000 C 
ATOM     17  C   UNL     1      27.478  22.968  30.446  0.00  0.00    +0.000 C 
ENDBRANCH  10  17
ENDBRANCH   1  13
BRANCH   6  18
ATOM     18  O   UNL     1      26.656  23.288  22.708  0.00  0.00    +0.000 OA
ATOM     19  C   UNL     1      26.801  24.191  21.619  0.00  0.00    +0.000 C 
ENDBRANCH   6  18
BRANCH   7  20
ATOM     20  O   UNL     1      25.925  22.966  25.312  0.00  0.00    +0.000 OA
ATOM     21  C   UNL     1      25.344  24.043  26.017  0.00  0.00    +0.000 C 
ENDBRANCH   7  20
TORSDOF 4
ENDMDL
MODEL 6
REMARK VINA RESULT:      -5.7     32.335     34.337
REMARK  Name = 
REMARK  4 active torsions:
REMARK  status: ('A' for Active; 'I' for Inactive)
REMARK    1  A    between atoms: C_2  and  N_3
REMARK    2  A    between atoms: C_6  and  C_7
REMARK    3  A    between atoms: C_12  and  O_13
REMARK    4  A    between atoms: C_15  and  O_16
REMARK                            x       y       z     vdW  Elec       q    Type
REMARK                         _______ _______ _______ _____ _____    ______ ____
ROOT
ATOM      1  C   UNL     1      17.700  -8.175  27.228  0.00  0.00    +0.000 A 
ATOM      2  C   UNL     1      17.039  -6.989  27.013  0.00  0.00    +0.000 A 
ATOM      3  N   UNL     1      17.888  -6.138  26.383  0.00  0.00    +0.000 NA
ATOM      4  C   UNL     1      19.071  -6.747  26.193  0.00  0.00    +0.000 A 
ATOM      5  C   UNL     1      20.253  -6.326  25.610  0.00  0.00    +0.000 A 
ATOM      6  C   UNL     1      21.313  -7.196  25.563  0.00  0.00    +0.000 A 
ATOM      7  C   UNL     1      21.237  -8.475  26.078  0.00  0.00    +0.000 A 
ATOM      8  C   UNL     1      20.054  -8.884  26.657  0.00  0.00    +0.000 A 
ATOM      9  C   UNL     1      18.966  -8.017  26.715  0.00  0.00    +0.000 A 
ENDROOT
BRANCH   1  13
ATOM     10  N   UNL     1      17.305 -11.389  30.950  0.00  0.00    +0.000 NA
ATOM     11  C   UNL     1      17.023 -10.826  29.646  0.00  0.00    +0.000 A 
ATOM     12  N   UNL     1      17.530  -9.743  29.088  0.00  0.00    +0.000 NA
ATOM     13  C   UNL     1      17.148  -9.394  27.892  0.00  0.00    +0.000 A 
ATOM     14  C   UNL     1      16.216 -10.203  27.277  0.00  0.00    +0.000 A 
ATOM     15  S   UNL     1      15.953 -11.405  28.454  0.00  0.00    +0.000 S 
BRANCH  10  17
ATOM     16  C   UNL     1      18.661 -11.491  32.990  0.00  0.00    +0.000 C 
ATOM     17  C   UNL     1      18.261 -10.694  31.771  0.00  0.00    +0.000 C 
ENDBRANCH  10  17
ENDBRANCH   1  13
BRANCH   6  18
ATOM     18  O   UNL     1      22.532  -6.820  24.983  0.00  0.00    +0.000 OA
ATOM     19  C   UNL     1      22.622  -6.686  23.570  0.00  0.00    +0.000 C 
ENDBRANCH   6  18
BRANCH   7  20
ATOM     20  O   UNL     1      22.337  -9.335  26.013  0.00  0.00    +0.000 OA
ATOM     21  C   UNL     1      22.453 -10.365  26.972  0.00  0.00    +0.000 C 
ENDBRANCH   7  20
TORSDOF 4
ENDMDL
MODEL 7
REMARK VINA RESULT:      -5.6     32.427     34.455
REMARK  Name = 
REMARK  4 active torsions:
REMARK  status: ('A' for Active; 'I' for Inactive)
REMARK    1  A    between atoms: C_2  and  N_3
REMARK    2  A    between atoms: C_6  and  C_7
REMARK    3  A    between atoms: C_12  and  O_13
REMARK    4  A    between atoms: C_15  and  O_16
REMARK                            x       y       z     vdW  Elec       q    Type
REMARK                         _______ _______ _______ _____ _____    ______ ____
ROOT
ATOM      1  C   UNL     1      17.803  -8.008  27.215  0.00  0.00    +0.000 A 
ATOM      2  C   UNL     1      17.154  -6.809  27.049  0.00  0.00    +0.000 A 
ATOM      3  N   UNL     1      18.002  -5.949  26.429  0.00  0.00    +0.000 NA
ATOM      4  C   UNL     1      19.173  -6.567  26.199  0.00  0.00    +0.000 A 
ATOM      5  C   UNL     1      20.349  -6.143  25.606  0.00  0.00    +0.000 A 
ATOM      6  C   UNL     1      21.397  -7.025  25.512  0.00  0.00    +0.000 A 
ATOM      7  C   UNL     1      21.314  -8.317  25.990  0.00  0.00    +0.000 A 
ATOM      8  C   UNL     1      20.137  -8.729  26.578  0.00  0.00    +0.000 A 
ATOM      9  C   UNL     1      19.061  -7.851  26.683  0.00  0.00    +0.000 A 
ENDROOT
BRANCH   1  13
ATOM     10  N   UNL     1      14.932 -12.019  27.327  0.00  0.00    +0.000 NA
ATOM     11  C   UNL     1      15.900 -11.064  27.826  0.00  0.00    +0.000 A 
ATOM     12  N   UNL     1      16.372  -9.983  27.235  0.00  0.00    +0.000 NA
ATOM     13  C   UNL     1      17.247  -9.241  27.852  0.00  0.00    +0.000 A 
ATOM     14  C   UNL     1      17.629  -9.648  29.113  0.00  0.00    +0.000 A 
ATOM     15  S   UNL     1      16.708 -11.064  29.325  0.00  0.00    +0.000 S 
BRANCH  10  17
ATOM     16  C   UNL     1      13.048 -11.103  26.053  0.00  0.00    +0.000 C 
ATOM     17  C   UNL     1      14.397 -11.782  26.012  0.00  0.00    +0.000 C 
ENDBRANCH  10  17
ENDBRANCH   1  13
BRANCH   6  18
ATOM     18  O   UNL     1      22.610  -6.647  24.921  0.00  0.00    +0.000 OA
ATOM     19  C   UNL     1      22.681  -6.492  23.509  0.00  0.00    +0.000 C 
ENDBRANCH   6  18
BRANCH   7  20
ATOM     20  O   UNL     1      22.401  -9.189  25.877  0.00  0.00    +0.000 OA
ATOM     21  C   UNL     1      22.493 -10.280  26.769  0.00  0.00    +0.000 C 
ENDBRANCH   7  20
TORSDOF 4
ENDMDL
MODEL 8
REMARK VINA RESULT:      -5.6     31.806     33.717
REMARK  Name = 
REMARK  4 active torsions:
REMARK  status: ('A' for Active; 'I' for Inactive)
REMARK    1  A    between atoms: C_2  and  N_3
REMARK    2  A    between atoms: C_6  and  C_7
REMARK    3  A    between atoms: C_12  and  O_13
REMARK    4  A    between atoms: C_15  and  O_16
REMARK                            x       y       z     vdW  Elec       q    Type
REMARK                         _______ _______ _______ _____ _____    ______ ____
ROOT
ATOM      1  C   UNL     1      19.162  -7.524  26.297  0.00  0.00    +0.000 A 
ATOM      2  C   UNL     1      18.972  -6.171  26.147  0.00  0.00    +0.000 A 
ATOM      3  N   UNL     1      20.083  -5.648  25.569  0.00  0.00    +0.000 NA
ATOM      4  C   UNL     1      20.975  -6.629  25.349  0.00  0.00    +0.000 A 
ATOM      5  C   UNL     1      22.242  -6.629  24.793  0.00  0.00    +0.000 A 
ATOM      6  C   UNL     1      22.923  -7.817  24.701  0.00  0.00    +0.000 A 
ATOM      7  C   UNL     1      22.384  -9.009  25.143  0.00  0.00    +0.000 A 
ATOM      8  C   UNL     1      21.120  -8.997  25.695  0.00  0.00    +0.000 A 
ATOM      9  C   UNL     1      20.412  -7.802  25.798  0.00  0.00    +0.000 A 
ENDROOT
BRANCH   1  13
ATOM     10  N   UNL     1      17.266 -10.174  30.001  0.00  0.00    +0.000 NA
ATOM     11  C   UNL     1      17.382  -9.682  28.645  0.00  0.00    +0.000 A 
ATOM     12  N   UNL     1      18.250  -8.818  28.152  0.00  0.00    +0.000 NA
ATOM     13  C   UNL     1      18.195  -8.497  26.891  0.00  0.00    +0.000 A 
ATOM     14  C   UNL     1      17.208  -9.098  26.139  0.00  0.00    +0.000 A 
ATOM     15  S   UNL     1      16.429 -10.081  27.291  0.00  0.00    +0.000 S 
BRANCH  10  17
ATOM     16  C   UNL     1      19.343 -10.635  31.221  0.00  0.00    +0.000 C 
ATOM     17  C   UNL     1      18.209  -9.670  30.965  0.00  0.00    +0.000 C 
ENDBRANCH  10  17
ENDBRANCH   1  13
BRANCH   6  18
ATOM     18  O   UNL     1      24.209  -7.873  24.147  0.00  0.00    +0.000 OA
ATOM     19  C   UNL     1      24.859  -6.666  23.766  0.00  0.00    +0.000 C 
ENDBRANCH   6  18
BRANCH   7  20
ATOM     20  O   UNL     1      23.106 -10.201  25.034  0.00  0.00    +0.000 OA
ATOM     21  C   UNL     1      23.725 -10.730  26.188  0.00  0.00    +0.000 C 
ENDBRANCH   7  20
TORSDOF 4
ENDMDL
MODEL 9
REMARK VINA RESULT:      -5.3      3.632      7.219
REMARK  Name = 
REMARK  4 active torsions:
REMARK  status: ('A' for Active; 'I' for Inactive)
REMARK    1  A    between atoms: C_2  and  N_3
REMARK    2  A    between atoms: C_6  and  C_7
REMARK    3  A    between atoms: C_12  and  O_13
REMARK    4  A    between atoms: C_15  and  O_16
REMARK                            x       y       z     vdW  Elec       q    Type
REMARK                         _______ _______ _______ _____ _____    ______ ____
ROOT
ATOM      1  C   UNL     1      27.210  23.032  26.855  0.00  0.00    +0.000 A 
ATOM      2  C   UNL     1      28.162  22.172  27.348  0.00  0.00    +0.000 A 
ATOM      3  N   UNL     1      28.170  22.276  28.701  0.00  0.00    +0.000 NA
ATOM      4  C   UNL     1      27.251  23.180  29.083  0.00  0.00    +0.000 A 
ATOM      5  C   UNL     1      26.866  23.649  30.326  0.00  0.00    +0.000 A 
ATOM      6  C   UNL     1      25.874  24.595  30.398  0.00  0.00    +0.000 A 
ATOM      7  C   UNL     1      25.251  25.092  29.271  0.00  0.00    +0.000 A 
ATOM      8  C   UNL     1      25.642  24.617  28.037  0.00  0.00    +0.000 A 
ATOM      9  C   UNL     1      26.647  23.657  27.942  0.00  0.00    +0.000 A 
ENDROOT
BRANCH   1  13
ATOM     10  N   UNL     1      28.136  24.568  22.259  0.00  0.00    +0.000 NA
ATOM     11  C   UNL     1      27.363  23.976  23.331  0.00  0.00    +0.000 A 
ATOM     12  N   UNL     1      27.702  23.802  24.594  0.00  0.00    +0.000 NA
ATOM     13  C   UNL     1      26.861  23.244  25.417  0.00  0.00    +0.000 A 
ATOM     14  C   UNL     1      25.643  22.863  24.897  0.00  0.00    +0.000 A 
ATOM     15  S   UNL     1      25.788  23.332  23.266  0.00  0.00    +0.000 S 
BRANCH  10  17
ATOM     16  C   UNL     1      29.546  26.548  22.583  0.00  0.00    +0.000 C 
ATOM     17  C   UNL     1      29.456  25.039  22.586  0.00  0.00    +0.000 C 
ENDBRANCH  10  17
ENDBRANCH   1  13
BRANCH   6  18
ATOM     18  O   UNL     1      25.447  25.104  31.632  0.00  0.00    +0.000 OA
ATOM     19  C   UNL     1      26.378  25.773  32.472  0.00  0.00    +0.000 C 
ENDBRANCH   6  18
BRANCH   7  20
ATOM     20  O   UNL     1      24.244  26.056  29.381  0.00  0.00    +0.000 OA
ATOM     21  C   UNL     1      24.551  27.399  29.070  0.00  0.00    +0.000 C 
ENDBRANCH   7  20
TORSDOF 4
ENDMDL
MODEL 10
REMARK VINA RESULT:      -5.3     17.644     19.428
REMARK  Name = 
REMARK  4 active torsions:
REMARK  status: ('A' for Active; 'I' for Inactive)
REMARK    1  A    between atoms: C_2  and  N_3
REMARK    2  A    between atoms: C_6  and  C_7
REMARK    3  A    between atoms: C_12  and  O_13
REMARK    4  A    between atoms: C_15  and  O_16
REMARK                            x       y       z     vdW  Elec       q    Type
REMARK                         _______ _______ _______ _____ _____    ______ ____
ROOT
ATOM      1  C   UNL     1      20.417  12.583  38.651  0.00  0.00    +0.000 A 
ATOM      2  C   UNL     1      20.042  13.844  39.050  0.00  0.00    +0.000 A 
ATOM      3  N   UNL     1      21.145  14.634  39.057  0.00  0.00    +0.000 NA
ATOM      4  C   UNL     1      22.213  13.911  38.675  0.00  0.00    +0.000 A 
ATOM      5  C   UNL     1      23.549  14.233  38.519  0.00  0.00    +0.000 A 
ATOM      6  C   UNL     1      24.420  13.257  38.105  0.00  0.00    +0.000 A 
ATOM      7  C   UNL     1      24.007  11.966  37.842  0.00  0.00    +0.000 A 
ATOM      8  C   UNL     1      22.672  11.656  38.001  0.00  0.00    +0.000 A 
ATOM      9  C   UNL     1      21.771  12.632  38.419  0.00  0.00    +0.000 A 
ENDROOT
BRANCH   1  13
ATOM     10  N   UNL     1      17.035   9.858  36.311  0.00  0.00    +0.000 NA
ATOM     11  C   UNL     1      17.967  10.200  37.365  0.00  0.00    +0.000 A 
ATOM     12  N   UNL     1      18.744  11.262  37.466  0.00  0.00    +0.000 NA
ATOM     13  C   UNL     1      19.523  11.394  38.502  0.00  0.00    +0.000 A 
ATOM     14  C   UNL     1      19.480  10.389  39.445  0.00  0.00    +0.000 A 
ATOM     15  S   UNL     1      18.327   9.327  38.782  0.00  0.00    +0.000 S 
BRANCH  10  17
ATOM     16  C   UNL     1      17.430  10.198  33.915  0.00  0.00    +0.000 C 
ATOM     17  C   UNL     1      16.921  10.781  35.212  0.00  0.00    +0.000 C 
ENDBRANCH  10  17
ENDBRANCH   1  13
BRANCH   6  18
ATOM     18  O   UNL     1      25.784  13.531  37.930  0.00  0.00    +0.000 OA
ATOM     19  C   UNL     1      26.354  14.671  38.560  0.00  0.00    +0.000 C 
ENDBRANCH   6  18
BRANCH   7  20
ATOM     20  O   UNL     1      24.922  10.997  37.422  0.00  0.00    +0.000 OA
ATOM     21  C   UNL     1      24.719  10.364  36.176  0.00  0.00    +0.000 C 
ENDBRANCH   7  20
TORSDOF 4
ENDMDL
