MODEL 1
REMARK VINA RESULT:      -7.6      0.000      0.000
REMARK  Name = 
REMARK  3 active torsions:
REMARK  status: ('A' for Active; 'I' for Inactive)
REMARK    1  A    between atoms: C_2  and  C_14
REMARK    2  A    between atoms: N_3  and  C_4
REMARK    3  A    between atoms: C_18  and  N_19
REMARK                            x       y       z     vdW  Elec       q    Type
REMARK                         _______ _______ _______ _____ _____    ______ ____
ROOT
ATOM      1  O   UNL     1      16.487  12.419  36.415  0.00  0.00    +0.000 OA
ATOM      2  C   UNL     1      16.541  11.424  35.684  0.00  0.00    +0.000 C 
ATOM      3  N   UNL     1      16.969  10.195  36.212  0.00  0.00    +0.000 NA
ENDROOT
BRANCH   3   4
ATOM      4  C   UNL     1      17.356  10.010  37.568  0.00  0.00    +0.000 A 
ATOM      5  C   UNL     1      16.476  10.125  38.630  0.00  0.00    +0.000 A 
ATOM      6  C   UNL     1      16.953   9.923  39.928  0.00  0.00    +0.000 A 
ATOM      7  C   UNL     1      18.289   9.613  40.166  0.00  0.00    +0.000 A 
ATOM      8  C   UNL     1      19.149   9.503  39.104  0.00  0.00    +0.000 A 
ATOM      9  C   UNL     1      18.660   9.705  37.826  0.00  0.00    +0.000 A 
ATOM     10  C   UNL     1      19.616   9.579  36.698  0.00  0.00    +0.000 C 
ATOM     11  C   UNL     1      20.848  10.356  37.025  0.00  0.00    +0.000 C 
ATOM     12  C   UNL     1      21.361  10.163  38.413  0.00  0.00    +0.000 C 
ATOM     13  C   UNL     1      20.593   9.177  39.231  0.00  0.00    +0.000 C 
ENDBRANCH   3   4
BRANCH   2  14
ATOM     14  C   UNL     1      16.171  11.458  34.255  0.00  0.00    +0.000 A 
ATOM     15  C   UNL     1      16.704  10.587  33.347  0.00  0.00    +0.000 A 
ATOM     16  C   UNL     1      16.332  10.648  32.011  0.00  0.00    +0.000 A 
ATOM     17  C   UNL     1      15.420  11.594  31.592  0.00  0.00    +0.000 A 
ATOM     18  C   UNL     1      14.854  12.501  32.488  0.00  0.00    +0.000 A 
ATOM     19  C   UNL     1      15.261  12.392  33.804  0.00  0.00    +0.000 A 
BRANCH  18  20
ATOM     20  N   UNL     1      13.920  13.467  32.052  0.00  0.00    +0.000 N 
ATOM     21  O   UNL     1      13.464  14.278  32.862  0.00  0.00    +0.000 OA
ATOM     22  O   UNL     1      13.520  13.514  30.753  0.00  0.00    +0.000 OA
ENDBRANCH  18  20
ENDBRANCH   2  14
TORSDOF 3
ENDMDL
MODEL 2
REMARK VINA RESULT:      -7.0      1.730      3.397
REMARK  Name = 
REMARK  3 active torsions:
REMARK  status: ('A' for Active; 'I' for Inactive)
REMARK    1  A    between atoms: C_2  and  C_14
REMARK    2  A    between atoms: N_3  and  C_4
REMARK    3  A    between atoms: C_18  and  N_19
REMARK                            x       y       z     vdW  Elec       q    Type
REMARK                         _______ _______ _______ _____ _____    ______ ____
ROOT
ATOM      1  O   UNL     1      18.317  12.049  37.614  0.00  0.00    +0.000 OA
ATOM      2  C   UNL     1      17.564  11.190  37.144  0.00  0.00    +0.000 C 
ATOM      3  N   UNL     1      17.480   9.929  37.755  0.00  0.00    +0.000 NA
ENDROOT
BRANCH   3   4
ATOM      4  C   UNL     1      18.221   9.559  38.911  0.00  0.00    +0.000 A 
ATOM      5  C   UNL     1      19.558   9.205  38.872  0.00  0.00    +0.000 A 
ATOM      6  C   UNL     1      20.200   8.857  40.064  0.00  0.00    +0.000 A 
ATOM      7  C   UNL     1      19.519   8.861  41.278  0.00  0.00    +0.000 A 
ATOM      8  C   UNL     1      18.195   9.214  41.301  0.00  0.00    +0.000 A 
ATOM      9  C   UNL     1      17.575   9.555  40.112  0.00  0.00    +0.000 A 
ATOM     10  C   UNL     1      16.142   9.933  40.170  0.00  0.00    +0.000 C 
ATOM     11  C   UNL     1      15.411   8.917  40.985  0.00  0.00    +0.000 C 
ATOM     12  C   UNL     1      16.091   8.525  42.253  0.00  0.00    +0.000 C 
ATOM     13  C   UNL     1      17.364   9.256  42.532  0.00  0.00    +0.000 C 
ENDBRANCH   3   4
BRANCH   2  14
ATOM     14  C   UNL     1      16.729  11.424  35.948  0.00  0.00    +0.000 A 
ATOM     15  C   UNL     1      16.999  10.828  34.748  0.00  0.00    +0.000 A 
ATOM     16  C   UNL     1      16.191  11.071  33.645  0.00  0.00    +0.000 A 
ATOM     17  C   UNL     1      15.110  11.919  33.756  0.00  0.00    +0.000 A 
ATOM     18  C   UNL     1      14.802  12.546  34.963  0.00  0.00    +0.000 A 
ATOM     19  C   UNL     1      15.640  12.266  36.026  0.00  0.00    +0.000 A 
BRANCH  18  20
ATOM     20  N   UNL     1      13.693  13.413  35.070  0.00  0.00    +0.000 N 
ATOM     21  O   UNL     1      13.512  14.276  34.207  0.00  0.00    +0.000 OA
ATOM     22  O   UNL     1      12.823  13.308  36.110  0.00  0.00    +0.000 OA
ENDBRANCH  18  20
ENDBRANCH   2  14
TORSDOF 3
ENDMDL
MODEL 3
REMARK VINA RESULT:      -7.0     22.113     23.739
REMARK  Name = 
REMARK  3 active torsions:
REMARK  status: ('A' for Active; 'I' for Inactive)
REMARK    1  A    between atoms: C_2  and  C_14
REMARK    2  A    between atoms: N_3  and  C_4
REMARK    3  A    between atoms: C_18  and  N_19
REMARK                            x       y       z     vdW  Elec       q    Type
REMARK                         _______ _______ _______ _____ _____    ______ ____
ROOT
ATOM      1  O   UNL     1      29.561  24.232  20.948  0.00  0.00    +0.000 OA
ATOM      2  C   UNL     1      29.549  25.379  21.407  0.00  0.00    +0.000 C 
ATOM      3  N   UNL     1      29.571  25.572  22.797  0.00  0.00    +0.000 NA
ENDROOT
BRANCH   3   4
ATOM      4  C   UNL     1      29.606  24.510  23.743  0.00  0.00    +0.000 A 
ATOM      5  C   UNL     1      30.752  23.790  24.030  0.00  0.00    +0.000 A 
ATOM      6  C   UNL     1      30.685  22.763  24.976  0.00  0.00    +0.000 A 
ATOM      7  C   UNL     1      29.493  22.456  25.625  0.00  0.00    +0.000 A 
ATOM      8  C   UNL     1      28.366  23.178  25.329  0.00  0.00    +0.000 A 
ATOM      9  C   UNL     1      28.450  24.190  24.391  0.00  0.00    +0.000 A 
ATOM     10  C   UNL     1      27.212  24.953  24.093  0.00  0.00    +0.000 C 
ATOM     11  C   UNL     1      26.096  23.987  23.869  0.00  0.00    +0.000 C 
ATOM     12  C   UNL     1      26.021  22.877  24.862  0.00  0.00    +0.000 C 
ATOM     13  C   UNL     1      27.038  22.944  25.955  0.00  0.00    +0.000 C 
ENDBRANCH   3   4
BRANCH   2  14
ATOM     14  C   UNL     1      29.514  26.584  20.553  0.00  0.00    +0.000 A 
ATOM     15  C   UNL     1      29.007  27.773  20.998  0.00  0.00    +0.000 A 
ATOM     16  C   UNL     1      28.990  28.885  20.167  0.00  0.00    +0.000 A 
ATOM     17  C   UNL     1      29.486  28.794  18.884  0.00  0.00    +0.000 A 
ATOM     18  C   UNL     1      30.012  27.599  18.393  0.00  0.00    +0.000 A 
ATOM     19  C   UNL     1      30.003  26.526  19.265  0.00  0.00    +0.000 A 
BRANCH  18  20
ATOM     20  N   UNL     1      30.519  27.513  17.078  0.00  0.00    +0.000 N 
ATOM     21  O   UNL     1      29.887  26.886  16.224  0.00  0.00    +0.000 OA
ATOM     22  O   UNL     1      31.693  28.113  16.742  0.00  0.00    +0.000 OA
ENDBRANCH  18  20
ENDBRANCH   2  14
TORSDOF 3
ENDMDL
MODEL 4
REMARK VINA RESULT:      -6.9     21.308     22.976
REMARK  Name = 
REMARK  3 active torsions:
REMARK  status: ('A' for Active; 'I' for Inactive)
REMARK    1  A    between atoms: C_2  and  C_14
REMARK    2  A    between atoms: N_3  and  C_4
REMARK    3  A    between atoms: C_18  and  N_19
REMARK                            x       y       z     vdW  Elec       q    Type
REMARK                         _______ _______ _______ _____ _____    ______ ____
ROOT
ATOM      1  O   UNL     1      22.076  -8.404  25.768  0.00  0.00    +0.000 OA
ATOM      2  C   UNL     1      21.549  -7.405  25.267  0.00  0.00    +0.000 C 
ATOM      3  N   UNL     1      22.165  -6.763  24.181  0.00  0.00    +0.000 NA
ENDROOT
BRANCH   3   4
ATOM      4  C   UNL     1      23.389  -7.194  23.599  0.00  0.00    +0.000 A 
ATOM      5  C   UNL     1      24.628  -6.748  24.022  0.00  0.00    +0.000 A 
ATOM      6  C   UNL     1      25.774  -7.231  23.386  0.00  0.00    +0.000 A 
ATOM      7  C   UNL     1      25.688  -8.146  22.341  0.00  0.00    +0.000 A 
ATOM      8  C   UNL     1      24.454  -8.579  21.932  0.00  0.00    +0.000 A 
ATOM      9  C   UNL     1      23.330  -8.090  22.572  0.00  0.00    +0.000 A 
ATOM     10  C   UNL     1      22.008  -8.579  22.106  0.00  0.00    +0.000 C 
ATOM     11  C   UNL     1      21.964  -8.492  20.617  0.00  0.00    +0.000 C 
ATOM     12  C   UNL     1      23.187  -8.991  19.924  0.00  0.00    +0.000 C 
ATOM     13  C   UNL     1      24.234  -9.552  20.830  0.00  0.00    +0.000 C 
ENDBRANCH   3   4
BRANCH   2  14
ATOM     14  C   UNL     1      20.277  -6.837  25.760  0.00  0.00    +0.000 A 
ATOM     15  C   UNL     1      20.102  -5.493  25.934  0.00  0.00    +0.000 A 
ATOM     16  C   UNL     1      18.892  -4.996  26.399  0.00  0.00    +0.000 A 
ATOM     17  C   UNL     1      17.858  -5.861  26.690  0.00  0.00    +0.000 A 
ATOM     18  C   UNL     1      17.997  -7.239  26.525  0.00  0.00    +0.000 A 
ATOM     19  C   UNL     1      19.223  -7.675  26.059  0.00  0.00    +0.000 A 
BRANCH  18  20
ATOM     20  N   UNL     1      16.934  -8.118  26.825  0.00  0.00    +0.000 N 
ATOM     21  O   UNL     1      17.089  -8.986  27.688  0.00  0.00    +0.000 OA
ATOM     22  O   UNL     1      15.743  -8.019  26.175  0.00  0.00    +0.000 OA
ENDBRANCH  18  20
ENDBRANCH   2  14
TORSDOF 3
ENDMDL
MODEL 5
REMARK VINA RESULT:      -6.9      3.346      5.230
REMARK  Name = 
REMARK  3 active torsions:
REMARK  status: ('A' for Active; 'I' for Inactive)
REMARK    1  A    between atoms: C_2  and  C_14
REMARK    2  A    between atoms: N_3  and  C_4
REMARK    3  A    between atoms: C_18  and  N_19
REMARK                            x       y       z     vdW  Elec       q    Type
REMARK                         _______ _______ _______ _____ _____    ______ ____
ROOT
ATOM      1  O   UNL     1      18.722   9.844  40.393  0.00  0.00    +0.000 OA
ATOM      2  C   UNL     1      17.673   9.658  39.767  0.00  0.00    +0.000 C 
ATOM      3  N   UNL     1      16.540   9.171  40.438  0.00  0.00    +0.000 NA
ENDROOT
BRANCH   3   4
ATOM      4  C   UNL     1      16.513   8.869  41.828  0.00  0.00    +0.000 A 
ATOM      5  C   UNL     1      16.401   9.835  42.811  0.00  0.00    +0.000 A 
ATOM      6  C   UNL     1      16.383   9.437  44.151  0.00  0.00    +0.000 A 
ATOM      7  C   UNL     1      16.477   8.095  44.506  0.00  0.00    +0.000 A 
ATOM      8  C   UNL     1      16.588   7.149  43.520  0.00  0.00    +0.000 A 
ATOM      9  C   UNL     1      16.604   7.560  42.200  0.00  0.00    +0.000 A 
ATOM     10  C   UNL     1      16.725   6.512  41.157  0.00  0.00    +0.000 C 
ATOM     11  C   UNL     1      17.833   5.586  41.535  0.00  0.00    +0.000 C 
ATOM     12  C   UNL     1      17.835   5.163  42.966  0.00  0.00    +0.000 C 
ATOM     13  C   UNL     1      16.695   5.688  43.775  0.00  0.00    +0.000 C 
ENDBRANCH   3   4
BRANCH   2  14
ATOM     14  C   UNL     1      17.544   9.926  38.320  0.00  0.00    +0.000 A 
ATOM     15  C   UNL     1      18.440   9.440  37.410  0.00  0.00    +0.000 A 
ATOM     16  C   UNL     1      18.287   9.712  36.057  0.00  0.00    +0.000 A 
ATOM     17  C   UNL     1      17.225  10.479  35.625  0.00  0.00    +0.000 A 
ATOM     18  C   UNL     1      16.289  10.993  36.523  0.00  0.00    +0.000 A 
ATOM     19  C   UNL     1      16.494  10.688  37.855  0.00  0.00    +0.000 A 
BRANCH  18  20
ATOM     20  N   UNL     1      15.204  11.776  36.073  0.00  0.00    +0.000 N 
ATOM     21  O   UNL     1      15.067  11.986  34.865  0.00  0.00    +0.000 OA
ATOM     22  O   UNL     1      14.310  12.301  36.953  0.00  0.00    +0.000 OA
ENDBRANCH  18  20
ENDBRANCH   2  14
TORSDOF 3
ENDMDL
MODEL 6
REMARK VINA RESULT:      -6.9      2.270      3.684
REMARK  Name = 
REMARK  3 active torsions:
REMARK  status: ('A' for Active; 'I' for Inactive)
REMARK    1  A    between atoms: C_2  and  C_14
REMARK    2  A    between atoms: N_3  and  C_4
REMARK    3  A    between atoms: C_18  and  N_19
REMARK                            x       y       z     vdW  Elec       q    Type
REMARK                         _______ _______ _______ _____ _____    ______ ____
ROOT
ATOM      1  O   UNL     1      18.470   8.950  37.946  0.00  0.00    +0.000 OA
ATOM      2  C   UNL     1      18.733   9.866  37.160  0.00  0.00    +0.000 C 
ATOM      3  N   UNL     1      19.955  10.548  37.270  0.00  0.00    +0.000 NA
ENDROOT
BRANCH   3   4
ATOM      4  C   UNL     1      20.942  10.250  38.249  0.00  0.00    +0.000 A 
ATOM      5  C   UNL     1      20.742  10.431  39.606  0.00  0.00    +0.000 A 
ATOM      6  C   UNL     1      21.774  10.108  40.491  0.00  0.00    +0.000 A 
ATOM      7  C   UNL     1      22.990   9.612  40.031  0.00  0.00    +0.000 A 
ATOM      8  C   UNL     1      23.174   9.438  38.684  0.00  0.00    +0.000 A 
ATOM      9  C   UNL     1      22.142   9.763  37.823  0.00  0.00    +0.000 A 
ATOM     10  C   UNL     1      22.373   9.563  36.370  0.00  0.00    +0.000 C 
ATOM     11  C   UNL     1      23.695  10.153  36.010  0.00  0.00    +0.000 C 
ATOM     12  C   UNL     1      24.805   9.828  36.953  0.00  0.00    +0.000 C 
ATOM     13  C   UNL     1      24.425   8.916  38.074  0.00  0.00    +0.000 C 
ENDBRANCH   3   4
BRANCH   2  14
ATOM     14  C   UNL     1      17.810  10.292  36.088  0.00  0.00    +0.000 A 
ATOM     15  C   UNL     1      17.972   9.893  34.791  0.00  0.00    +0.000 A 
ATOM     16  C   UNL     1      17.084  10.314  33.810  0.00  0.00    +0.000 A 
ATOM     17  C   UNL     1      16.031  11.140  34.142  0.00  0.00    +0.000 A 
ATOM     18  C   UNL     1      15.832  11.569  35.454  0.00  0.00    +0.000 A 
ATOM     19  C   UNL     1      16.747  11.118  36.387  0.00  0.00    +0.000 A 
BRANCH  18  20
ATOM     20  N   UNL     1      14.752  12.415  35.787  0.00  0.00    +0.000 N 
ATOM     21  O   UNL     1      14.306  13.192  34.938  0.00  0.00    +0.000 OA
ATOM     22  O   UNL     1      14.197  12.383  37.028  0.00  0.00    +0.000 OA
ENDBRANCH  18  20
ENDBRANCH   2  14
TORSDOF 3
ENDMDL
MODEL 7
REMARK VINA RESULT:      -6.9     18.157     20.302
REMARK  Name = 
REMARK  3 active torsions:
REMARK  status: ('A' for Active; 'I' for Inactive)
REMARK    1  A    between atoms: C_2  and  C_14
REMARK    2  A    between atoms: N_3  and  C_4
REMARK    3  A    between atoms: C_18  and  N_19
REMARK                            x       y       z     vdW  Elec       q    Type
REMARK                         _______ _______ _______ _____ _____    ______ ____
ROOT
ATOM      1  O   UNL     1      31.447  24.125  27.871  0.00  0.00    +0.000 OA
ATOM      2  C   UNL     1      31.390  22.933  28.189  0.00  0.00    +0.000 C 
ATOM      3  N   UNL     1      30.651  22.037  27.400  0.00  0.00    +0.000 NA
ENDROOT
BRANCH   3   4
ATOM      4  C   UNL     1      29.942  22.417  26.226  0.00  0.00    +0.000 A 
ATOM      5  C   UNL     1      30.564  22.683  25.019  0.00  0.00    +0.000 A 
ATOM      6  C   UNL     1      29.779  23.049  23.922  0.00  0.00    +0.000 A 
ATOM      7  C   UNL     1      28.395  23.150  24.025  0.00  0.00    +0.000 A 
ATOM      8  C   UNL     1      27.794  22.883  25.228  0.00  0.00    +0.000 A 
ATOM      9  C   UNL     1      28.585  22.522  26.303  0.00  0.00    +0.000 A 
ATOM     10  C   UNL     1      27.904  22.240  27.591  0.00  0.00    +0.000 C 
ATOM     11  C   UNL     1      26.935  23.340  27.871  0.00  0.00    +0.000 C 
ATOM     12  C   UNL     1      26.100  23.752  26.705  0.00  0.00    +0.000 C 
ATOM     13  C   UNL     1      26.328  22.956  25.462  0.00  0.00    +0.000 C 
ENDBRANCH   3   4
BRANCH   2  14
ATOM     14  C   UNL     1      32.073  22.386  29.379  0.00  0.00    +0.000 A 
ATOM     15  C   UNL     1      33.408  22.094  29.380  0.00  0.00    +0.000 A 
ATOM     16  C   UNL     1      34.016  21.583  30.518  0.00  0.00    +0.000 A 
ATOM     17  C   UNL     1      33.271  21.364  31.657  0.00  0.00    +0.000 A 
ATOM     18  C   UNL     1      31.906  21.649  31.697  0.00  0.00    +0.000 A 
ATOM     19  C   UNL     1      31.357  22.157  30.535  0.00  0.00    +0.000 A 
BRANCH  18  20
ATOM     20  N   UNL     1      31.150  21.423  32.868  0.00  0.00    +0.000 N 
ATOM     21  O   UNL     1      29.933  21.244  32.779  0.00  0.00    +0.000 OA
ATOM     22  O   UNL     1      31.747  21.400  34.090  0.00  0.00    +0.000 OA
ENDBRANCH  18  20
ENDBRANCH   2  14
TORSDOF 3
ENDMDL
MODEL 8
REMARK VINA RESULT:      -6.8      2.439      4.165
REMARK  Name = 
REMARK  3 active torsions:
REMARK  status: ('A' for Active; 'I' for Inactive)
REMARK    1  A    between atoms: C_2  and  C_14
REMARK    2  A    between atoms: N_3  and  C_4
REMARK    3  A    between atoms: C_18  and  N_19
REMARK                            x       y       z     vdW  Elec       q    Type
REMARK                         _______ _______ _______ _____ _____    ______ ____
ROOT
ATOM      1  O   UNL     1      18.575   8.678  38.600  0.00  0.00    +0.000 OA
ATOM      2  C   UNL     1      18.627   9.785  38.054  0.00  0.00    +0.000 C 
ATOM      3  N   UNL     1      19.817  10.529  38.101  0.00  0.00    +0.000 NA
ENDROOT
BRANCH   3   4
ATOM      4  C   UNL     1      21.001  10.086  38.751  0.00  0.00    +0.000 A 
ATOM      5  C   UNL     1      21.141  10.047  40.127  0.00  0.00    +0.000 A 
ATOM      6  C   UNL     1      22.346   9.595  40.671  0.00  0.00    +0.000 A 
ATOM      7  C   UNL     1      23.398   9.188  39.857  0.00  0.00    +0.000 A 
ATOM      8  C   UNL     1      23.245   9.232  38.495  0.00  0.00    +0.000 A 
ATOM      9  C   UNL     1      22.046   9.682  37.973  0.00  0.00    +0.000 A 
ATOM     10  C   UNL     1      21.912   9.719  36.496  0.00  0.00    +0.000 C 
ATOM     11  C   UNL     1      23.126  10.369  35.920  0.00  0.00    +0.000 C 
ATOM     12  C   UNL     1      24.420   9.907  36.502  0.00  0.00    +0.000 C 
ATOM     13  C   UNL     1      24.294   8.825  37.524  0.00  0.00    +0.000 C 
ENDBRANCH   3   4
BRANCH   2  14
ATOM     14  C   UNL     1      17.480  10.381  37.339  0.00  0.00    +0.000 A 
ATOM     15  C   UNL     1      16.437  10.966  38.000  0.00  0.00    +0.000 A 
ATOM     16  C   UNL     1      15.376  11.516  37.294  0.00  0.00    +0.000 A 
ATOM     17  C   UNL     1      15.369  11.473  35.916  0.00  0.00    +0.000 A 
ATOM     18  C   UNL     1      16.414  10.885  35.204  0.00  0.00    +0.000 A 
ATOM     19  C   UNL     1      17.443  10.355  35.960  0.00  0.00    +0.000 A 
BRANCH  18  20
ATOM     20  N   UNL     1      16.401  10.845  33.793  0.00  0.00    +0.000 N 
ATOM     21  O   UNL     1      17.307  10.259  33.194  0.00  0.00    +0.000 OA
ATOM     22  O   UNL     1      15.403  11.441  33.088  0.00  0.00    +0.000 OA
ENDBRANCH  18  20
ENDBRANCH   2  14
TORSDOF 3
ENDMDL
MODEL 9
REMARK VINA RESULT:      -6.7      4.066      6.285
REMARK  Name = 
REMARK  3 active torsions:
REMARK  status: ('A' for Active; 'I' for Inactive)
REMARK    1  A    between atoms: C_2  and  C_14
REMARK    2  A    between atoms: N_3  and  C_4
REMARK    3  A    between atoms: C_18  and  N_19
REMARK                            x       y       z     vdW  Elec       q    Type
REMARK                         _______ _______ _______ _____ _____    ______ ____
ROOT
ATOM      1  O   UNL     1      21.179   9.116  39.544  0.00  0.00    +0.000 OA
ATOM      2  C   UNL     1      20.332   9.719  38.877  0.00  0.00    +0.000 C 
ATOM      3  N   UNL     1      20.720  10.399  37.712  0.00  0.00    +0.000 NA
ENDROOT
BRANCH   3   4
ATOM      4  C   UNL     1      22.057  10.444  37.230  0.00  0.00    +0.000 A 
ATOM      5  C   UNL     1      22.616   9.448  36.450  0.00  0.00    +0.000 A 
ATOM      6  C   UNL     1      23.941   9.584  36.026  0.00  0.00    +0.000 A 
ATOM      7  C   UNL     1      24.699  10.697  36.375  0.00  0.00    +0.000 A 
ATOM      8  C   UNL     1      24.132  11.676  37.149  0.00  0.00    +0.000 A 
ATOM      9  C   UNL     1      22.820  11.525  37.560  0.00  0.00    +0.000 A 
ATOM     10  C   UNL     1      22.236  12.602  38.397  0.00  0.00    +0.000 C 
ATOM     11  C   UNL     1      23.197  12.936  39.489  0.00  0.00    +0.000 C 
ATOM     12  C   UNL     1      24.617  13.071  39.054  0.00  0.00    +0.000 C 
ATOM     13  C   UNL     1      24.839  12.909  37.585  0.00  0.00    +0.000 C 
ENDBRANCH   3   4
BRANCH   2  14
ATOM     14  C   UNL     1      18.903   9.763  39.248  0.00  0.00    +0.000 A 
ATOM     15  C   UNL     1      18.450   9.295  40.449  0.00  0.00    +0.000 A 
ATOM     16  C   UNL     1      17.099   9.353  40.763  0.00  0.00    +0.000 A 
ATOM     17  C   UNL     1      16.204   9.885  39.858  0.00  0.00    +0.000 A 
ATOM     18  C   UNL     1      16.627  10.372  38.622  0.00  0.00    +0.000 A 
ATOM     19  C   UNL     1      17.982  10.288  38.366  0.00  0.00    +0.000 A 
BRANCH  18  20
ATOM     20  N   UNL     1      15.705  10.915  37.700  0.00  0.00    +0.000 N 
ATOM     21  O   UNL     1      16.003  10.970  36.505  0.00  0.00    +0.000 OA
ATOM     22  O   UNL     1      14.494  11.376  38.115  0.00  0.00    +0.000 OA
ENDBRANCH  18  20
ENDBRANCH   2  14
TORSDOF 3
ENDMDL
MODEL 10
REMARK VINA RESULT:      -6.7     21.009     23.375
REMARK  Name = 
REMARK  3 active torsions:
REMARK  status: ('A' for Active; 'I' for Inactive)
REMARK    1  A    between atoms: C_2  and  C_14
REMARK    2  A    between atoms: N_3  and  C_4
REMARK    3  A    between atoms: C_18  and  N_19
REMARK                            x       y       z     vdW  Elec       q    Type
REMARK                         _______ _______ _______ _____ _____    ______ ____
ROOT
ATOM      1  O   UNL     1      34.715  -5.032  33.258  0.00  0.00    +0.000 OA
ATOM      2  C   UNL     1      33.550  -4.620  33.275  0.00  0.00    +0.000 C 
ATOM      3  N   UNL     1      32.526  -5.403  32.719  0.00  0.00    +0.000 NA
ENDROOT
BRANCH   3   4
ATOM      4  C   UNL     1      32.741  -6.675  32.120  0.00  0.00    +0.000 A 
ATOM      5  C   UNL     1      32.765  -7.857  32.839  0.00  0.00    +0.000 A 
ATOM      6  C   UNL     1      32.983  -9.058  32.158  0.00  0.00    +0.000 A 
ATOM      7  C   UNL     1      33.177  -9.081  30.780  0.00  0.00    +0.000 A 
ATOM      8  C   UNL     1      33.151  -7.902  30.081  0.00  0.00    +0.000 A 
ATOM      9  C   UNL     1      32.934  -6.723  30.771  0.00  0.00    +0.000 A 
ATOM     10  C   UNL     1      32.911  -5.464  29.986  0.00  0.00    +0.000 C 
ATOM     11  C   UNL     1      34.095  -5.445  29.077  0.00  0.00    +0.000 C 
ATOM     12  C   UNL     1      34.350  -6.725  28.353  0.00  0.00    +0.000 C 
ATOM     13  C   UNL     1      33.344  -7.799  28.611  0.00  0.00    +0.000 C 
ENDBRANCH   3   4
BRANCH   2  14
ATOM     14  C   UNL     1      33.169  -3.319  33.863  0.00  0.00    +0.000 A 
ATOM     15  C   UNL     1      32.349  -3.228  34.952  0.00  0.00    +0.000 A 
ATOM     16  C   UNL     1      32.012  -1.988  35.478  0.00  0.00    +0.000 A 
ATOM     17  C   UNL     1      32.505  -0.838  34.899  0.00  0.00    +0.000 A 
ATOM     18  C   UNL     1      33.344  -0.889  33.786  0.00  0.00    +0.000 A 
ATOM     19  C   UNL     1      33.645  -2.150  33.308  0.00  0.00    +0.000 A 
BRANCH  18  20
ATOM     20  N   UNL     1      33.845   0.293  33.199  0.00  0.00    +0.000 N 
ATOM     21  O   UNL     1      34.728   0.217  32.340  0.00  0.00    +0.000 OA
ATOM     22  O   UNL     1      33.366   1.512  33.566  0.00  0.00    +0.000 OA
ENDBRANCH  18  20
ENDBRANCH   2  14
TORSDOF 3
ENDMDL
