MODEL 1
REMARK VINA RESULT:      -6.6      0.000      0.000
REMARK  Name = 
REMARK  9 active torsions:
REMARK  status: ('A' for Active; 'I' for Inactive)
REMARK    1  A    between atoms: C_7  and  C_8
REMARK    2  A    between atoms: C_8  and  N_9
REMARK    3  A    between atoms: C_13  and  C_14
REMARK    4  A    between atoms: C_14  and  N_15
REMARK    5  A    between atoms: N_15  and  C_16
REMARK    6  A    between atoms: N_15  and  C_26
REMARK    7  A    between atoms: C_16  and  C_17
REMARK    8  A    between atoms: C_17  and  C_19
REMARK    9  A    between atoms: C_19  and  C_20
REMARK                            x       y       z     vdW  Elec       q    Type
REMARK                         _______ _______ _______ _____ _____    ______ ____
ROOT
ATOM      1  N   UNL     1      37.308  -1.959  16.105  0.00  0.00    +0.000 NA
ENDROOT
BRANCH   1   2
ATOM      2  C   UNL     1      36.827  -3.218  15.577  0.00  0.00    +0.000 C 
ATOM      3  C   UNL     1      35.561  -2.985  14.886  0.00  0.00    +0.000 C 
ATOM      4  C   UNL     1      34.900  -4.303  14.586  0.00  0.00    +0.000 C 
ATOM      5  C   UNL     1      34.965  -5.274  15.705  0.00  0.00    +0.000 C 
ATOM      6  C   UNL     1      36.324  -5.520  16.285  0.00  0.00    +0.000 C 
ATOM      7  C   UNL     1      36.884  -4.177  16.681  0.00  0.00    +0.000 C 
ENDBRANCH   1   2
BRANCH   1   8
ATOM      8  C   UNL     1      38.588  -2.127  16.523  0.00  0.00    +0.000 C 
BRANCH   8  13
ATOM      9  N   UNL     1      40.000  -0.714  14.890  0.00  0.00    +0.000 N 
ATOM     10  C   UNL     1      41.101  -0.968  14.103  0.00  0.00    +0.000 A 
ATOM     11  C   UNL     1      41.460  -2.289  14.258  0.00  0.00    +0.000 A 
ATOM     12  C   UNL     1      40.550  -2.809  15.153  0.00  0.00    +0.000 A 
ATOM     13  C   UNL     1      39.641  -1.814  15.543  0.00  0.00    +0.000 A 
BRANCH   9  14
ATOM     14  C   UNL     1      39.350   0.555  14.910  0.00  0.00    +0.000 C 
BRANCH  14  21
ATOM     15  C   UNL     1      40.074   3.000  13.350  0.00  0.00    +0.000 C 
ATOM     16  C   UNL     1      38.971   2.089  12.973  0.00  0.00    +0.000 A 
ATOM     17  C   UNL     1      38.279   2.469  11.814  0.00  0.00    +0.000 A 
ATOM     18  C   UNL     1      37.264   1.692  11.362  0.00  0.00    +0.000 A 
ATOM     19  C   UNL     1      36.945   0.546  12.065  0.00  0.00    +0.000 A 
ATOM     20  C   UNL     1      37.615   0.165  13.201  0.00  0.00    +0.000 A 
ATOM     21  C   UNL     1      38.675   0.973  13.677  0.00  0.00    +0.000 A 
ENDBRANCH  14  21
ENDBRANCH   9  14
ENDBRANCH   8  13
ENDBRANCH   1   8
BRANCH   1  22
ATOM     22  C   UNL     1      36.194  -1.483  16.642  0.00  0.00    +0.000 C 
BRANCH  22  23
ATOM     23  C   UNL     1      36.232  -0.080  17.444  0.00  0.00    +0.000 C 
ATOM     24  O   UNL     1      35.291  -0.586  18.520  0.00  0.00    +0.000 OA
BRANCH  23  25
ATOM     25  C   UNL     1      35.075   0.618  16.521  0.00  0.00    +0.000 C 
BRANCH  25  26
ATOM     26  C   UNL     1      35.549   1.817  15.894  0.00  0.00    +0.000 A 
ATOM     27  C   UNL     1      35.103   2.412  14.736  0.00  0.00    +0.000 A 
ATOM     28  C   UNL     1      35.638   3.570  14.213  0.00  0.00    +0.000 A 
ATOM     29  C   UNL     1      36.698   4.188  14.884  0.00  0.00    +0.000 A 
ATOM     30  C   UNL     1      37.175   3.638  16.034  0.00  0.00    +0.000 A 
ATOM     31  C   UNL     1      36.615   2.481  16.526  0.00  0.00    +0.000 A 
ENDBRANCH  25  26
ENDBRANCH  23  25
ENDBRANCH  22  23
ENDBRANCH   1  22
TORSDOF 9
ENDMDL
MODEL 2
REMARK VINA RESULT:      -6.5      2.472      5.674
REMARK  Name = 
REMARK  9 active torsions:
REMARK  status: ('A' for Active; 'I' for Inactive)
REMARK    1  A    between atoms: C_7  and  C_8
REMARK    2  A    between atoms: C_8  and  N_9
REMARK    3  A    between atoms: C_13  and  C_14
REMARK    4  A    between atoms: C_14  and  N_15
REMARK    5  A    between atoms: N_15  and  C_16
REMARK    6  A    between atoms: N_15  and  C_26
REMARK    7  A    between atoms: C_16  and  C_17
REMARK    8  A    between atoms: C_17  and  C_19
REMARK    9  A    between atoms: C_19  and  C_20
REMARK                            x       y       z     vdW  Elec       q    Type
REMARK                         _______ _______ _______ _____ _____    ______ ____
ROOT
ATOM      1  N   UNL     1      37.562   1.193  15.397  0.00  0.00    +0.000 NA
ENDROOT
BRANCH   1   2
ATOM      2  C   UNL     1      38.309   0.529  14.350  0.00  0.00    +0.000 C 
ATOM      3  C   UNL     1      39.604   1.191  14.205  0.00  0.00    +0.000 C 
ATOM      4  C   UNL     1      40.274   0.716  12.943  0.00  0.00    +0.000 C 
ATOM      5  C   UNL     1      39.359   0.616  11.780  0.00  0.00    +0.000 C 
ATOM      6  C   UNL     1      38.100  -0.166  11.999  0.00  0.00    +0.000 C 
ATOM      7  C   UNL     1      37.410   0.435  13.199  0.00  0.00    +0.000 C 
ENDBRANCH   1   2
BRANCH   1   8
ATOM      8  C   UNL     1      36.463   0.449  15.680  0.00  0.00    +0.000 C 
BRANCH   8  13
ATOM      9  N   UNL     1      36.513  -1.344  17.535  0.00  0.00    +0.000 N 
ATOM     10  C   UNL     1      36.387  -1.313  18.906  0.00  0.00    +0.000 A 
ATOM     11  C   UNL     1      36.172  -0.011  19.301  0.00  0.00    +0.000 A 
ATOM     12  C   UNL     1      36.174   0.725  18.136  0.00  0.00    +0.000 A 
ATOM     13  C   UNL     1      36.390  -0.119  17.037  0.00  0.00    +0.000 A 
BRANCH   9  14
ATOM     14  C   UNL     1      36.689  -2.559  16.810  0.00  0.00    +0.000 C 
BRANCH  14  21
ATOM     15  C   UNL     1      36.550  -3.416  13.949  0.00  0.00    +0.000 C 
ATOM     16  C   UNL     1      37.811  -3.046  14.629  0.00  0.00    +0.000 A 
ATOM     17  C   UNL     1      38.951  -3.134  13.818  0.00  0.00    +0.000 A 
ATOM     18  C   UNL     1      40.159  -2.794  14.331  0.00  0.00    +0.000 A 
ATOM     19  C   UNL     1      40.223  -2.371  15.645  0.00  0.00    +0.000 A 
ATOM     20  C   UNL     1      39.114  -2.282  16.448  0.00  0.00    +0.000 A 
ATOM     21  C   UNL     1      37.851  -2.636  15.917  0.00  0.00    +0.000 A 
ENDBRANCH  14  21
ENDBRANCH   9  14
ENDBRANCH   8  13
ENDBRANCH   1   8
BRANCH   1  22
ATOM     22  C   UNL     1      37.791   2.461  15.088  0.00  0.00    +0.000 C 
BRANCH  22  23
ATOM     23  C   UNL     1      37.230   3.629  16.053  0.00  0.00    +0.000 C 
ATOM     24  O   UNL     1      36.201   4.078  15.033  0.00  0.00    +0.000 OA
BRANCH  23  25
ATOM     25  C   UNL     1      38.382   4.708  15.619  0.00  0.00    +0.000 C 
BRANCH  25  26
ATOM     26  C   UNL     1      39.093   5.211  16.758  0.00  0.00    +0.000 A 
ATOM     27  C   UNL     1      38.731   5.160  18.085  0.00  0.00    +0.000 A 
ATOM     28  C   UNL     1      39.490   5.684  19.108  0.00  0.00    +0.000 A 
ATOM     29  C   UNL     1      40.702   6.310  18.798  0.00  0.00    +0.000 A 
ATOM     30  C   UNL     1      41.105   6.385  17.500  0.00  0.00    +0.000 A 
ATOM     31  C   UNL     1      40.319   5.849  16.505  0.00  0.00    +0.000 A 
ENDBRANCH  25  26
ENDBRANCH  23  25
ENDBRANCH  22  23
ENDBRANCH   1  22
TORSDOF 9
ENDMDL
MODEL 3
REMARK VINA RESULT:      -6.5      1.835      6.054
REMARK  Name = 
REMARK  9 active torsions:
REMARK  status: ('A' for Active; 'I' for Inactive)
REMARK    1  A    between atoms: C_7  and  C_8
REMARK    2  A    between atoms: C_8  and  N_9
REMARK    3  A    between atoms: C_13  and  C_14
REMARK    4  A    between atoms: C_14  and  N_15
REMARK    5  A    between atoms: N_15  and  C_16
REMARK    6  A    between atoms: N_15  and  C_26
REMARK    7  A    between atoms: C_16  and  C_17
REMARK    8  A    between atoms: C_17  and  C_19
REMARK    9  A    between atoms: C_19  and  C_20
REMARK                            x       y       z     vdW  Elec       q    Type
REMARK                         _______ _______ _______ _____ _____    ______ ____
ROOT
ATOM      1  N   UNL     1      38.367   2.090  15.011  0.00  0.00    +0.000 NA
ENDROOT
BRANCH   1   2
ATOM      2  C   UNL     1      39.176   3.290  15.029  0.00  0.00    +0.000 C 
ATOM      3  C   UNL     1      38.693   4.166  16.094  0.00  0.00    +0.000 C 
ATOM      4  C   UNL     1      39.317   5.528  15.948  0.00  0.00    +0.000 C 
ATOM      5  C   UNL     1      39.362   6.019  14.550  0.00  0.00    +0.000 C 
ATOM      6  C   UNL     1      39.965   5.085  13.544  0.00  0.00    +0.000 C 
ATOM      7  C   UNL     1      39.217   3.780  13.651  0.00  0.00    +0.000 C 
ENDBRANCH   1   2
BRANCH   1   8
ATOM      8  C   UNL     1      38.770   1.313  13.974  0.00  0.00    +0.000 C 
BRANCH   8  13
ATOM      9  N   UNL     1      39.472  -0.886  15.126  0.00  0.00    +0.000 N 
ATOM     10  C   UNL     1      40.572  -1.710  15.037  0.00  0.00    +0.000 A 
ATOM     11  C   UNL     1      41.456  -1.170  14.130  0.00  0.00    +0.000 A 
ATOM     12  C   UNL     1      40.856  -0.012  13.685  0.00  0.00    +0.000 A 
ATOM     13  C   UNL     1      39.614   0.155  14.314  0.00  0.00    +0.000 A 
BRANCH   9  14
ATOM     14  C   UNL     1      38.396  -1.142  16.026  0.00  0.00    +0.000 C 
BRANCH  14  21
ATOM     15  C   UNL     1      38.616  -3.548  17.786  0.00  0.00    +0.000 C 
ATOM     16  C   UNL     1      37.746  -3.489  16.591  0.00  0.00    +0.000 A 
ATOM     17  C   UNL     1      37.026  -4.666  16.342  0.00  0.00    +0.000 A 
ATOM     18  C   UNL     1      36.179  -4.716  15.285  0.00  0.00    +0.000 A 
ATOM     19  C   UNL     1      36.054  -3.595  14.485  0.00  0.00    +0.000 A 
ATOM     20  C   UNL     1      36.753  -2.438  14.719  0.00  0.00    +0.000 A 
ATOM     21  C   UNL     1      37.640  -2.382  15.820  0.00  0.00    +0.000 A 
ENDBRANCH  14  21
ENDBRANCH   9  14
ENDBRANCH   8  13
ENDBRANCH   1   8
BRANCH   1  22
ATOM     22  C   UNL     1      37.208   2.575  15.433  0.00  0.00    +0.000 C 
BRANCH  22  23
ATOM     23  C   UNL     1      35.830   1.913  14.911  0.00  0.00    +0.000 C 
ATOM     24  O   UNL     1      35.318   3.233  14.367  0.00  0.00    +0.000 OA
BRANCH  23  25
ATOM     25  C   UNL     1      35.083   2.027  16.363  0.00  0.00    +0.000 C 
BRANCH  25  26
ATOM     26  C   UNL     1      35.211   0.816  17.120  0.00  0.00    +0.000 A 
ATOM     27  C   UNL     1      34.567  -0.385  16.928  0.00  0.00    +0.000 A 
ATOM     28  C   UNL     1      34.758  -1.494  17.725  0.00  0.00    +0.000 A 
ATOM     29  C   UNL     1      35.654  -1.410  18.796  0.00  0.00    +0.000 A 
ATOM     30  C   UNL     1      36.315  -0.242  19.027  0.00  0.00    +0.000 A 
ATOM     31  C   UNL     1      36.098   0.843  18.209  0.00  0.00    +0.000 A 
ENDBRANCH  25  26
ENDBRANCH  23  25
ENDBRANCH  22  23
ENDBRANCH   1  22
TORSDOF 9
ENDMDL
MODEL 4
REMARK VINA RESULT:      -6.4      2.620      6.053
REMARK  Name = 
REMARK  9 active torsions:
REMARK  status: ('A' for Active; 'I' for Inactive)
REMARK    1  A    between atoms: C_7  and  C_8
REMARK    2  A    between atoms: C_8  and  N_9
REMARK    3  A    between atoms: C_13  and  C_14
REMARK    4  A    between atoms: C_14  and  N_15
REMARK    5  A    between atoms: N_15  and  C_16
REMARK    6  A    between atoms: N_15  and  C_26
REMARK    7  A    between atoms: C_16  and  C_17
REMARK    8  A    between atoms: C_17  and  C_19
REMARK    9  A    between atoms: C_19  and  C_20
REMARK                            x       y       z     vdW  Elec       q    Type
REMARK                         _______ _______ _______ _____ _____    ______ ____
ROOT
ATOM      1  N   UNL     1      36.980   1.100  15.954  0.00  0.00    +0.000 NA
ENDROOT
BRANCH   1   2
ATOM      2  C   UNL     1      36.535  -0.018  16.758  0.00  0.00    +0.000 C 
ATOM      3  C   UNL     1      35.452  -0.701  16.054  0.00  0.00    +0.000 C 
ATOM      4  C   UNL     1      34.782  -1.675  16.985  0.00  0.00    +0.000 C 
ATOM      5  C   UNL     1      34.557  -1.141  18.350  0.00  0.00    +0.000 C 
ATOM      6  C   UNL     1      35.753  -0.547  19.029  0.00  0.00    +0.000 C 
ATOM      7  C   UNL     1      36.307   0.508  18.104  0.00  0.00    +0.000 C 
ENDBRANCH   1   2
BRANCH   1   8
ATOM      8  C   UNL     1      36.133   2.140  16.155  0.00  0.00    +0.000 C 
BRANCH   8  13
ATOM      9  N   UNL     1      37.410   4.041  14.965  0.00  0.00    +0.000 N 
ATOM     10  C   UNL     1      37.045   5.054  14.107  0.00  0.00    +0.000 A 
ATOM     11  C   UNL     1      35.685   4.989  13.898  0.00  0.00    +0.000 A 
ATOM     12  C   UNL     1      35.255   3.916  14.649  0.00  0.00    +0.000 A 
ATOM     13  C   UNL     1      36.343   3.329  15.311  0.00  0.00    +0.000 A 
BRANCH   9  14
ATOM     14  C   UNL     1      38.749   3.871  15.424  0.00  0.00    +0.000 C 
BRANCH  14  21
ATOM     15  C   UNL     1      40.857   5.955  15.034  0.00  0.00    +0.000 C 
ATOM     16  C   UNL     1      40.179   5.712  16.327  0.00  0.00    +0.000 A 
ATOM     17  C   UNL     1      40.611   6.543  17.371  0.00  0.00    +0.000 A 
ATOM     18  C   UNL     1      40.041   6.423  18.595  0.00  0.00    +0.000 A 
ATOM     19  C   UNL     1      39.047   5.479  18.771  0.00  0.00    +0.000 A 
ATOM     20  C   UNL     1      38.617   4.660  17.757  0.00  0.00    +0.000 A 
ATOM     21  C   UNL     1      39.210   4.781  16.478  0.00  0.00    +0.000 A 
ENDBRANCH  14  21
ENDBRANCH   9  14
ENDBRANCH   8  13
ENDBRANCH   1   8
BRANCH   1  22
ATOM     22  C   UNL     1      37.456   0.461  14.895  0.00  0.00    +0.000 C 
BRANCH  22  23
ATOM     23  C   UNL     1      39.015   0.038  14.855  0.00  0.00    +0.000 C 
ATOM     24  O   UNL     1      39.269   0.816  13.579  0.00  0.00    +0.000 OA
BRANCH  23  25
ATOM     25  C   UNL     1      38.732  -1.399  14.124  0.00  0.00    +0.000 C 
BRANCH  25  26
ATOM     26  C   UNL     1      38.430  -2.427  15.076  0.00  0.00    +0.000 A 
ATOM     27  C   UNL     1      37.501  -3.439  14.979  0.00  0.00    +0.000 A 
ATOM     28  C   UNL     1      37.285  -4.379  15.963  0.00  0.00    +0.000 A 
ATOM     29  C   UNL     1      38.043  -4.315  17.137  0.00  0.00    +0.000 A 
ATOM     30  C   UNL     1      38.974  -3.333  17.281  0.00  0.00    +0.000 A 
ATOM     31  C   UNL     1      39.162  -2.412  16.275  0.00  0.00    +0.000 A 
ENDBRANCH  25  26
ENDBRANCH  23  25
ENDBRANCH  22  23
ENDBRANCH   1  22
TORSDOF 9
ENDMDL
MODEL 5
REMARK VINA RESULT:      -6.4      2.201      6.300
REMARK  Name = 
REMARK  9 active torsions:
REMARK  status: ('A' for Active; 'I' for Inactive)
REMARK    1  A    between atoms: C_7  and  C_8
REMARK    2  A    between atoms: C_8  and  N_9
REMARK    3  A    between atoms: C_13  and  C_14
REMARK    4  A    between atoms: C_14  and  N_15
REMARK    5  A    between atoms: N_15  and  C_16
REMARK    6  A    between atoms: N_15  and  C_26
REMARK    7  A    between atoms: C_16  and  C_17
REMARK    8  A    between atoms: C_17  and  C_19
REMARK    9  A    between atoms: C_19  and  C_20
REMARK                            x       y       z     vdW  Elec       q    Type
REMARK                         _______ _______ _______ _____ _____    ______ ____
ROOT
ATOM      1  N   UNL     1      37.892   3.586  15.292  0.00  0.00    +0.000 NA
ENDROOT
BRANCH   1   2
ATOM      2  C   UNL     1      38.331   4.710  16.092  0.00  0.00    +0.000 C 
ATOM      3  C   UNL     1      39.617   5.177  15.581  0.00  0.00    +0.000 C 
ATOM      4  C   UNL     1      40.228   6.142  16.561  0.00  0.00    +0.000 C 
ATOM      5  C   UNL     1      40.104   5.716  17.977  0.00  0.00    +0.000 C 
ATOM      6  C   UNL     1      38.725   5.349  18.435  0.00  0.00    +0.000 C 
ATOM      7  C   UNL     1      38.215   4.290  17.489  0.00  0.00    +0.000 C 
ENDBRANCH   1   2
BRANCH   1   8
ATOM      8  C   UNL     1      38.262   3.803  14.004  0.00  0.00    +0.000 C 
BRANCH   8  13
ATOM      9  N   UNL     1      39.063   1.486  13.201  0.00  0.00    +0.000 N 
ATOM     10  C   UNL     1      38.748   0.676  12.132  0.00  0.00    +0.000 A 
ATOM     11  C   UNL     1      37.806   1.316  11.356  0.00  0.00    +0.000 A 
ATOM     12  C   UNL     1      37.572   2.518  11.989  0.00  0.00    +0.000 A 
ATOM     13  C   UNL     1      38.363   2.613  13.143  0.00  0.00    +0.000 A 
BRANCH   9  14
ATOM     14  C   UNL     1      40.053   1.130  14.164  0.00  0.00    +0.000 C 
BRANCH  14  21
ATOM     15  C   UNL     1      42.238  -0.859  13.709  0.00  0.00    +0.000 C 
ATOM     16  C   UNL     1      40.993  -1.169  14.446  0.00  0.00    +0.000 A 
ATOM     17  C   UNL     1      40.914  -2.487  14.918  0.00  0.00    +0.000 A 
ATOM     18  C   UNL     1      39.827  -2.875  15.629  0.00  0.00    +0.000 A 
ATOM     19  C   UNL     1      38.828  -1.949  15.865  0.00  0.00    +0.000 A 
ATOM     20  C   UNL     1      38.894  -0.657  15.407  0.00  0.00    +0.000 A 
ATOM     21  C   UNL     1      40.026  -0.248  14.664  0.00  0.00    +0.000 A 
ENDBRANCH  14  21
ENDBRANCH   9  14
ENDBRANCH   8  13
ENDBRANCH   1   8
BRANCH   1  22
ATOM     22  C   UNL     1      36.762   3.277  15.911  0.00  0.00    +0.000 C 
BRANCH  22  23
ATOM     23  C   UNL     1      35.783   2.162  15.271  0.00  0.00    +0.000 C 
ATOM     24  O   UNL     1      34.822   3.207  14.738  0.00  0.00    +0.000 OA
BRANCH  23  25
ATOM     25  C   UNL     1      34.980   1.889  16.670  0.00  0.00    +0.000 C 
BRANCH  25  26
ATOM     26  C   UNL     1      35.396   0.666  17.290  0.00  0.00    +0.000 A 
ATOM     27  C   UNL     1      36.116   0.495  18.451  0.00  0.00    +0.000 A 
ATOM     28  C   UNL     1      36.473  -0.735  18.959  0.00  0.00    +0.000 A 
ATOM     29  C   UNL     1      36.089  -1.889  18.268  0.00  0.00    +0.000 A 
ATOM     30  C   UNL     1      35.375  -1.773  17.114  0.00  0.00    +0.000 A 
ATOM     31  C   UNL     1      35.038  -0.526  16.638  0.00  0.00    +0.000 A 
ENDBRANCH  25  26
ENDBRANCH  23  25
ENDBRANCH  22  23
ENDBRANCH   1  22
TORSDOF 9
ENDMDL
MODEL 6
REMARK VINA RESULT:      -6.4      2.677      5.947
REMARK  Name = 
REMARK  9 active torsions:
REMARK  status: ('A' for Active; 'I' for Inactive)
REMARK    1  A    between atoms: C_7  and  C_8
REMARK    2  A    between atoms: C_8  and  N_9
REMARK    3  A    between atoms: C_13  and  C_14
REMARK    4  A    between atoms: C_14  and  N_15
REMARK    5  A    between atoms: N_15  and  C_16
REMARK    6  A    between atoms: N_15  and  C_26
REMARK    7  A    between atoms: C_16  and  C_17
REMARK    8  A    between atoms: C_17  and  C_19
REMARK    9  A    between atoms: C_19  and  C_20
REMARK                            x       y       z     vdW  Elec       q    Type
REMARK                         _______ _______ _______ _____ _____    ______ ____
ROOT
ATOM      1  N   UNL     1      37.062   1.881  13.961  0.00  0.00    +0.000 NA
ENDROOT
BRANCH   1   2
ATOM      2  C   UNL     1      37.905   0.726  13.733  0.00  0.00    +0.000 C 
ATOM      3  C   UNL     1      37.054  -0.429  13.454  0.00  0.00    +0.000 C 
ATOM      4  C   UNL     1      37.880  -1.686  13.503  0.00  0.00    +0.000 C 
ATOM      5  C   UNL     1      38.840  -1.729  14.633  0.00  0.00    +0.000 C 
ATOM      6  C   UNL     1      39.738  -0.538  14.779  0.00  0.00    +0.000 C 
ATOM      7  C   UNL     1      38.849   0.679  14.850  0.00  0.00    +0.000 C 
ENDBRANCH   1   2
BRANCH   1   8
ATOM      8  C   UNL     1      37.438   2.865  13.107  0.00  0.00    +0.000 C 
BRANCH   8  13
ATOM      9  N   UNL     1      37.963   5.147  14.191  0.00  0.00    +0.000 N 
ATOM     10  C   UNL     1      37.262   6.322  14.348  0.00  0.00    +0.000 A 
ATOM     11  C   UNL     1      36.009   6.165  13.797  0.00  0.00    +0.000 A 
ATOM     12  C   UNL     1      35.986   4.875  13.312  0.00  0.00    +0.000 A 
ATOM     13  C   UNL     1      37.215   4.248  13.563  0.00  0.00    +0.000 A 
BRANCH   9  14
ATOM     14  C   UNL     1      39.281   4.968  14.706  0.00  0.00    +0.000 C 
BRANCH  14  21
ATOM     15  C   UNL     1      41.434   6.765  15.742  0.00  0.00    +0.000 C 
ATOM     16  C   UNL     1      40.468   6.062  16.615  0.00  0.00    +0.000 A 
ATOM     17  C   UNL     1      40.647   6.303  17.985  0.00  0.00    +0.000 A 
ATOM     18  C   UNL     1      39.802   5.728  18.876  0.00  0.00    +0.000 A 
ATOM     19  C   UNL     1      38.789   4.918  18.399  0.00  0.00    +0.000 A 
ATOM     20  C   UNL     1      38.605   4.675  17.060  0.00  0.00    +0.000 A 
ATOM     21  C   UNL     1      39.485   5.272  16.127  0.00  0.00    +0.000 A 
ENDBRANCH  14  21
ENDBRANCH   9  14
ENDBRANCH   8  13
ENDBRANCH   1   8
BRANCH   1  22
ATOM     22  C   UNL     1      36.874   1.786  15.269  0.00  0.00    +0.000 C 
BRANCH  22  23
ATOM     23  C   UNL     1      35.371   1.678  15.852  0.00  0.00    +0.000 C 
ATOM     24  O   UNL     1      35.404   3.092  16.400  0.00  0.00    +0.000 OA
BRANCH  23  25
ATOM     25  C   UNL     1      35.832   0.946  17.242  0.00  0.00    +0.000 C 
BRANCH  25  26
ATOM     26  C   UNL     1      35.910  -0.477  17.090  0.00  0.00    +0.000 A 
ATOM     27  C   UNL     1      35.069  -1.311  16.390  0.00  0.00    +0.000 A 
ATOM     28  C   UNL     1      35.232  -2.678  16.313  0.00  0.00    +0.000 A 
ATOM     29  C   UNL     1      36.309  -3.269  16.981  0.00  0.00    +0.000 A 
ATOM     30  C   UNL     1      37.170  -2.485  17.687  0.00  0.00    +0.000 A 
ATOM     31  C   UNL     1      36.975  -1.124  17.740  0.00  0.00    +0.000 A 
ENDBRANCH  25  26
ENDBRANCH  23  25
ENDBRANCH  22  23
ENDBRANCH   1  22
TORSDOF 9
ENDMDL
MODEL 7
REMARK VINA RESULT:      -6.3      2.995      6.375
REMARK  Name = 
REMARK  9 active torsions:
REMARK  status: ('A' for Active; 'I' for Inactive)
REMARK    1  A    between atoms: C_7  and  C_8
REMARK    2  A    between atoms: C_8  and  N_9
REMARK    3  A    between atoms: C_13  and  C_14
REMARK    4  A    between atoms: C_14  and  N_15
REMARK    5  A    between atoms: N_15  and  C_16
REMARK    6  A    between atoms: N_15  and  C_26
REMARK    7  A    between atoms: C_16  and  C_17
REMARK    8  A    between atoms: C_17  and  C_19
REMARK    9  A    between atoms: C_19  and  C_20
REMARK                            x       y       z     vdW  Elec       q    Type
REMARK                         _______ _______ _______ _____ _____    ______ ____
ROOT
ATOM      1  N   UNL     1      38.179   2.328  14.707  0.00  0.00    +0.000 NA
ENDROOT
BRANCH   1   2
ATOM      2  C   UNL     1      39.138   1.684  13.834  0.00  0.00    +0.000 C 
ATOM      3  C   UNL     1      38.446   1.231  12.629  0.00  0.00    +0.000 C 
ATOM      4  C   UNL     1      39.345   0.312  11.848  0.00  0.00    +0.000 C 
ATOM      5  C   UNL     1      40.082  -0.663  12.688  0.00  0.00    +0.000 C 
ATOM      6  C   UNL     1      40.842  -0.091  13.846  0.00  0.00    +0.000 C 
ATOM      7  C   UNL     1      39.862   0.717  14.660  0.00  0.00    +0.000 C 
ENDBRANCH   1   2
BRANCH   1   8
ATOM      8  C   UNL     1      36.931   1.970  14.315  0.00  0.00    +0.000 C 
BRANCH   8  13
ATOM      9  N   UNL     1      36.045  -0.166  15.459  0.00  0.00    +0.000 N 
ATOM     10  C   UNL     1      35.200  -0.410  16.519  0.00  0.00    +0.000 A 
ATOM     11  C   UNL     1      34.756   0.796  17.017  0.00  0.00    +0.000 A 
ATOM     12  C   UNL     1      35.356   1.755  16.229  0.00  0.00    +0.000 A 
ATOM     13  C   UNL     1      36.162   1.141  15.259  0.00  0.00    +0.000 A 
BRANCH   9  14
ATOM     14  C   UNL     1      36.630  -1.215  14.691  0.00  0.00    +0.000 C 
BRANCH  14  21
ATOM     15  C   UNL     1      35.464  -3.967  14.751  0.00  0.00    +0.000 C 
ATOM     16  C   UNL     1      36.684  -3.582  15.495  0.00  0.00    +0.000 A 
ATOM     17  C   UNL     1      37.255  -4.620  16.244  0.00  0.00    +0.000 A 
ATOM     18  C   UNL     1      38.391  -4.385  16.946  0.00  0.00    +0.000 A 
ATOM     19  C   UNL     1      38.948  -3.121  16.898  0.00  0.00    +0.000 A 
ATOM     20  C   UNL     1      38.397  -2.098  16.169  0.00  0.00    +0.000 A 
ATOM     21  C   UNL     1      37.211  -2.338  15.435  0.00  0.00    +0.000 A 
ENDBRANCH  14  21
ENDBRANCH   9  14
ENDBRANCH   8  13
ENDBRANCH   1   8
BRANCH   1  22
ATOM     22  C   UNL     1      38.803   3.473  14.945  0.00  0.00    +0.000 C 
BRANCH  22  23
ATOM     23  C   UNL     1      38.443   4.313  16.277  0.00  0.00    +0.000 C 
ATOM     24  O   UNL     1      37.429   5.173  15.548  0.00  0.00    +0.000 OA
BRANCH  23  25
ATOM     25  C   UNL     1      39.698   5.350  16.108  0.00  0.00    +0.000 C 
BRANCH  25  26
ATOM     26  C   UNL     1      40.187   5.801  17.378  0.00  0.00    +0.000 A 
ATOM     27  C   UNL     1      39.528   5.837  18.586  0.00  0.00    +0.000 A 
ATOM     28  C   UNL     1      40.093   6.300  19.755  0.00  0.00    +0.000 A 
ATOM     29  C   UNL     1      41.412   6.766  19.730  0.00  0.00    +0.000 A 
ATOM     30  C   UNL     1      42.105   6.751  18.558  0.00  0.00    +0.000 A 
ATOM     31  C   UNL     1      41.508   6.281  17.411  0.00  0.00    +0.000 A 
ENDBRANCH  25  26
ENDBRANCH  23  25
ENDBRANCH  22  23
ENDBRANCH   1  22
TORSDOF 9
ENDMDL
MODEL 8
REMARK VINA RESULT:      -6.3      2.222      5.679
REMARK  Name = 
REMARK  9 active torsions:
REMARK  status: ('A' for Active; 'I' for Inactive)
REMARK    1  A    between atoms: C_7  and  C_8
REMARK    2  A    between atoms: C_8  and  N_9
REMARK    3  A    between atoms: C_13  and  C_14
REMARK    4  A    between atoms: C_14  and  N_15
REMARK    5  A    between atoms: N_15  and  C_16
REMARK    6  A    between atoms: N_15  and  C_26
REMARK    7  A    between atoms: C_16  and  C_17
REMARK    8  A    between atoms: C_17  and  C_19
REMARK    9  A    between atoms: C_19  and  C_20
REMARK                            x       y       z     vdW  Elec       q    Type
REMARK                         _______ _______ _______ _____ _____    ______ ____
ROOT
ATOM      1  N   UNL     1      38.048   0.369  13.977  0.00  0.00    +0.000 NA
ENDROOT
BRANCH   1   2
ATOM      2  C   UNL     1      38.721  -0.904  14.124  0.00  0.00    +0.000 C 
ATOM      3  C   UNL     1      40.016  -0.679  14.763  0.00  0.00    +0.000 C 
ATOM      4  C   UNL     1      40.850  -1.928  14.662  0.00  0.00    +0.000 C 
ATOM      5  C   UNL     1      40.783  -2.587  13.335  0.00  0.00    +0.000 C 
ATOM      6  C   UNL     1      39.409  -2.864  12.807  0.00  0.00    +0.000 C 
ATOM      7  C   UNL     1      38.661  -1.554  12.814  0.00  0.00    +0.000 C 
ENDBRANCH   1   2
BRANCH   1   8
ATOM      8  C   UNL     1      36.708   0.151  13.977  0.00  0.00    +0.000 C 
BRANCH   8  13
ATOM      9  N   UNL     1      35.385   0.025  16.188  0.00  0.00    +0.000 N 
ATOM     10  C   UNL     1      34.852   0.962  17.045  0.00  0.00    +0.000 A 
ATOM     11  C   UNL     1      35.104   2.218  16.538  0.00  0.00    +0.000 A 
ATOM     12  C   UNL     1      35.796   2.003  15.366  0.00  0.00    +0.000 A 
ATOM     13  C   UNL     1      35.968   0.627  15.157  0.00  0.00    +0.000 A 
BRANCH   9  14
ATOM     14  C   UNL     1      35.243  -1.377  16.404  0.00  0.00    +0.000 C 
BRANCH  14  21
ATOM     15  C   UNL     1      36.070  -3.736  14.764  0.00  0.00    +0.000 C 
ATOM     16  C   UNL     1      36.853  -3.226  15.911  0.00  0.00    +0.000 A 
ATOM     17  C   UNL     1      38.025  -3.947  16.175  0.00  0.00    +0.000 A 
ATOM     18  C   UNL     1      38.833  -3.553  17.191  0.00  0.00    +0.000 A 
ATOM     19  C   UNL     1      38.468  -2.446  17.933  0.00  0.00    +0.000 A 
ATOM     20  C   UNL     1      37.322  -1.733  17.684  0.00  0.00    +0.000 A 
ATOM     21  C   UNL     1      36.476  -2.142  16.626  0.00  0.00    +0.000 A 
ENDBRANCH  14  21
ENDBRANCH   9  14
ENDBRANCH   8  13
ENDBRANCH   1   8
BRANCH   1  22
ATOM     22  C   UNL     1      38.902   1.003  13.188  0.00  0.00    +0.000 C 
BRANCH  22  23
ATOM     23  C   UNL     1      38.871   2.617  13.113  0.00  0.00    +0.000 C 
ATOM     24  O   UNL     1      40.276   2.691  12.548  0.00  0.00    +0.000 OA
BRANCH  23  25
ATOM     25  C   UNL     1      39.306   2.819  14.678  0.00  0.00    +0.000 C 
BRANCH  25  26
ATOM     26  C   UNL     1      38.858   4.078  15.195  0.00  0.00    +0.000 A 
ATOM     27  C   UNL     1      39.111   4.638  16.426  0.00  0.00    +0.000 A 
ATOM     28  C   UNL     1      38.622   5.863  16.828  0.00  0.00    +0.000 A 
ATOM     29  C   UNL     1      37.817   6.591  15.946  0.00  0.00    +0.000 A 
ATOM     30  C   UNL     1      37.538   6.080  14.716  0.00  0.00    +0.000 A 
ATOM     31  C   UNL     1      38.045   4.854  14.350  0.00  0.00    +0.000 A 
ENDBRANCH  25  26
ENDBRANCH  23  25
ENDBRANCH  22  23
ENDBRANCH   1  22
TORSDOF 9
ENDMDL
MODEL 9
REMARK VINA RESULT:      -6.2      2.528      5.914
REMARK  Name = 
REMARK  9 active torsions:
REMARK  status: ('A' for Active; 'I' for Inactive)
REMARK    1  A    between atoms: C_7  and  C_8
REMARK    2  A    between atoms: C_8  and  N_9
REMARK    3  A    between atoms: C_13  and  C_14
REMARK    4  A    between atoms: C_14  and  N_15
REMARK    5  A    between atoms: N_15  and  C_16
REMARK    6  A    between atoms: N_15  and  C_26
REMARK    7  A    between atoms: C_16  and  C_17
REMARK    8  A    between atoms: C_17  and  C_19
REMARK    9  A    between atoms: C_19  and  C_20
REMARK                            x       y       z     vdW  Elec       q    Type
REMARK                         _______ _______ _______ _____ _____    ______ ____
ROOT
ATOM      1  N   UNL     1      38.407   1.550  13.832  0.00  0.00    +0.000 NA
ENDROOT
BRANCH   1   2
ATOM      2  C   UNL     1      39.311   0.484  13.455  0.00  0.00    +0.000 C 
ATOM      3  C   UNL     1      38.650  -0.365  12.466  0.00  0.00    +0.000 C 
ATOM      4  C   UNL     1      39.442  -1.630  12.278  0.00  0.00    +0.000 C 
ATOM      5  C   UNL     1      39.939  -2.220  13.545  0.00  0.00    +0.000 C 
ATOM      6  C   UNL     1      40.690  -1.293  14.452  0.00  0.00    +0.000 C 
ATOM      7  C   UNL     1      39.797  -0.103  14.704  0.00  0.00    +0.000 C 
ENDBRANCH   1   2
BRANCH   1   8
ATOM      8  C   UNL     1      37.133   1.104  13.698  0.00  0.00    +0.000 C 
BRANCH   8  13
ATOM      9  N   UNL     1      35.937   0.887  15.974  0.00  0.00    +0.000 N 
ATOM     10  C   UNL     1      34.987   1.631  16.636  0.00  0.00    +0.000 A 
ATOM     11  C   UNL     1      34.632   2.700  15.843  0.00  0.00    +0.000 A 
ATOM     12  C   UNL     1      35.391   2.571  14.700  0.00  0.00    +0.000 A 
ATOM     13  C   UNL     1      36.206   1.433  14.794  0.00  0.00    +0.000 A 
BRANCH   9  14
ATOM     14  C   UNL     1      36.472  -0.322  16.510  0.00  0.00    +0.000 C 
BRANCH  14  21
ATOM     15  C   UNL     1      33.961  -1.658  17.430  0.00  0.00    +0.000 C 
ATOM     16  C   UNL     1      34.839  -2.210  16.375  0.00  0.00    +0.000 A 
ATOM     17  C   UNL     1      34.398  -3.427  15.836  0.00  0.00    +0.000 A 
ATOM     18  C   UNL     1      35.114  -4.012  14.844  0.00  0.00    +0.000 A 
ATOM     19  C   UNL     1      36.261  -3.383  14.397  0.00  0.00    +0.000 A 
ATOM     20  C   UNL     1      36.701  -2.192  14.918  0.00  0.00    +0.000 A 
ATOM     21  C   UNL     1      35.958  -1.579  15.954  0.00  0.00    +0.000 A 
ENDBRANCH  14  21
ENDBRANCH   9  14
ENDBRANCH   8  13
ENDBRANCH   1   8
BRANCH   1  22
ATOM     22  C   UNL     1      39.089   2.603  13.406  0.00  0.00    +0.000 C 
BRANCH  22  23
ATOM     23  C   UNL     1      38.476   4.085  13.610  0.00  0.00    +0.000 C 
ATOM     24  O   UNL     1      38.824   4.503  12.195  0.00  0.00    +0.000 OA
BRANCH  23  25
ATOM     25  C   UNL     1      39.833   4.683  14.303  0.00  0.00    +0.000 C 
BRANCH  25  26
ATOM     26  C   UNL     1      39.632   4.979  15.691  0.00  0.00    +0.000 A 
ATOM     27  C   UNL     1      40.362   5.820  16.501  0.00  0.00    +0.000 A 
ATOM     28  C   UNL     1      40.086   6.030  17.835  0.00  0.00    +0.000 A 
ATOM     29  C   UNL     1      39.007   5.356  18.416  0.00  0.00    +0.000 A 
ATOM     30  C   UNL     1      38.255   4.513  17.656  0.00  0.00    +0.000 A 
ATOM     31  C   UNL     1      38.561   4.329  16.327  0.00  0.00    +0.000 A 
ENDBRANCH  25  26
ENDBRANCH  23  25
ENDBRANCH  22  23
ENDBRANCH   1  22
TORSDOF 9
ENDMDL
MODEL 10
REMARK VINA RESULT:      -6.1      3.248      7.070
REMARK  Name = 
REMARK  9 active torsions:
REMARK  status: ('A' for Active; 'I' for Inactive)
REMARK    1  A    between atoms: C_7  and  C_8
REMARK    2  A    between atoms: C_8  and  N_9
REMARK    3  A    between atoms: C_13  and  C_14
REMARK    4  A    between atoms: C_14  and  N_15
REMARK    5  A    between atoms: N_15  and  C_16
REMARK    6  A    between atoms: N_15  and  C_26
REMARK    7  A    between atoms: C_16  and  C_17
REMARK    8  A    between atoms: C_17  and  C_19
REMARK    9  A    between atoms: C_19  and  C_20
REMARK                            x       y       z     vdW  Elec       q    Type
REMARK                         _______ _______ _______ _____ _____    ______ ____
ROOT
ATOM      1  N   UNL     1      37.350   4.036  14.409  0.00  0.00    +0.000 NA
ENDROOT
BRANCH   1   2
ATOM      2  C   UNL     1      36.578   5.031  13.695  0.00  0.00    +0.000 C 
ATOM      3  C   UNL     1      37.370   6.253  13.589  0.00  0.00    +0.000 C 
ATOM      4  C   UNL     1      36.494   7.382  13.118  0.00  0.00    +0.000 C 
ATOM      5  C   UNL     1      35.162   7.418  13.768  0.00  0.00    +0.000 C 
ATOM      6  C   UNL     1      34.382   6.139  13.740  0.00  0.00    +0.000 C 
ATOM      7  C   UNL     1      35.264   5.072  14.339  0.00  0.00    +0.000 C 
ENDBRANCH   1   2
BRANCH   1   8
ATOM      8  C   UNL     1      37.067   2.815  13.888  0.00  0.00    +0.000 C 
BRANCH   8  13
ATOM      9  N   UNL     1      37.924   0.490  14.607  0.00  0.00    +0.000 N 
ATOM     10  C   UNL     1      39.166  -0.100  14.673  0.00  0.00    +0.000 A 
ATOM     11  C   UNL     1      40.112   0.818  14.269  0.00  0.00    +0.000 A 
ATOM     12  C   UNL     1      39.402   1.959  13.964  0.00  0.00    +0.000 A 
ATOM     13  C   UNL     1      38.033   1.741  14.177  0.00  0.00    +0.000 A 
BRANCH   9  14
ATOM     14  C   UNL     1      36.735  -0.185  15.013  0.00  0.00    +0.000 C 
BRANCH  14  21
ATOM     15  C   UNL     1      35.034   1.579  16.726  0.00  0.00    +0.000 C 
ATOM     16  C   UNL     1      35.797   0.425  17.250  0.00  0.00    +0.000 A 
ATOM     17  C   UNL     1      35.663   0.222  18.630  0.00  0.00    +0.000 A 
ATOM     18  C   UNL     1      36.301  -0.823  19.214  0.00  0.00    +0.000 A 
ATOM     19  C   UNL     1      37.065  -1.656  18.420  0.00  0.00    +0.000 A 
ATOM     20  C   UNL     1      37.204  -1.467  17.067  0.00  0.00    +0.000 A 
ATOM     21  C   UNL     1      36.542  -0.378  16.455  0.00  0.00    +0.000 A 
ENDBRANCH  14  21
ENDBRANCH   9  14
ENDBRANCH   8  13
ENDBRANCH   1   8
BRANCH   1  22
ATOM     22  C   UNL     1      37.360   4.566  15.623  0.00  0.00    +0.000 C 
BRANCH  22  23
ATOM     23  C   UNL     1      38.648   4.352  16.575  0.00  0.00    +0.000 C 
ATOM     24  O   UNL     1      37.872   3.495  17.556  0.00  0.00    +0.000 OA
BRANCH  23  25
ATOM     25  C   UNL     1      38.441   5.762  17.378  0.00  0.00    +0.000 C 
BRANCH  25  26
ATOM     26  C   UNL     1      39.590   6.096  18.167  0.00  0.00    +0.000 A 
ATOM     27  C   UNL     1      39.654   6.369  19.515  0.00  0.00    +0.000 A 
ATOM     28  C   UNL     1      40.819   6.689  20.179  0.00  0.00    +0.000 A 
ATOM     29  C   UNL     1      42.015   6.746  19.456  0.00  0.00    +0.000 A 
ATOM     30  C   UNL     1      42.003   6.484  18.120  0.00  0.00    +0.000 A 
ATOM     31  C   UNL     1      40.820   6.168  17.492  0.00  0.00    +0.000 A 
ENDBRANCH  25  26
ENDBRANCH  23  25
ENDBRANCH  22  23
ENDBRANCH   1  22
TORSDOF 9
ENDMDL
