MODEL 1
REMARK VINA RESULT:      -7.9      0.000      0.000
REMARK  Name = 
REMARK  4 active torsions:
REMARK  status: ('A' for Active; 'I' for Inactive)
REMARK    1  A    between atoms: C_2  and  C_4
REMARK    2  A    between atoms: C_7  and  C_8
REMARK    3  A    between atoms: N_9  and  C_10
REMARK    4  A    between atoms: C_14  and  C_15
REMARK                            x       y       z     vdW  Elec       q    Type
REMARK                         _______ _______ _______ _____ _____    ______ ____
ROOT
ATOM      1  C   UNL     1      14.370  11.896  36.840  0.00  0.00    +0.000 C 
ATOM      2  N   UNL     1      15.052  12.184  35.787  0.00  0.00    +0.000 NA
ENDROOT
BRANCH   1   6
ATOM      3  C   UNL     1      15.994   9.718  40.118  0.00  0.00    +0.000 A 
ATOM      4  C   UNL     1      16.821  10.092  39.069  0.00  0.00    +0.000 A 
ATOM      5  C   UNL     1      16.275  10.795  38.022  0.00  0.00    +0.000 A 
ATOM      6  C   UNL     1      14.966  11.152  37.943  0.00  0.00    +0.000 A 
ATOM      7  C   UNL     1      14.130  10.777  38.997  0.00  0.00    +0.000 A 
ATOM      8  C   UNL     1      14.661  10.067  40.063  0.00  0.00    +0.000 A 
BRANCH   3  10
ATOM      9  C   UNL     1      16.494   9.753  42.530  0.00  0.00    +0.000 C 
ATOM     10  C   UNL     1      16.555   8.953  41.271  0.00  0.00    +0.000 C 
ATOM     11  C   UNL     1      15.979   7.576  41.386  0.00  0.00    +0.000 C 
ENDBRANCH   3  10
ENDBRANCH   1   6
BRANCH   2  12
ATOM     12  C   UNL     1      14.530  12.903  34.685  0.00  0.00    +0.000 A 
ATOM     13  C   UNL     1      13.755  14.035  34.820  0.00  0.00    +0.000 A 
ATOM     14  C   UNL     1      13.293  14.664  33.663  0.00  0.00    +0.000 A 
ATOM     15  C   UNL     1      13.604  14.168  32.414  0.00  0.00    +0.000 A 
ATOM     16  C   UNL     1      14.386  13.026  32.260  0.00  0.00    +0.000 A 
ATOM     17  C   UNL     1      14.827  12.427  33.425  0.00  0.00    +0.000 A 
BRANCH  16  18
ATOM     18  C   UNL     1      14.713  12.504  30.940  0.00  0.00    +0.000 C 
ATOM     19  N   UNL     1      14.785  11.101  30.743  0.00  0.00    +0.000 NA
ATOM     20  O   UNL     1      14.923  13.316  30.007  0.00  0.00    +0.000 OA
ENDBRANCH  16  18
ENDBRANCH   2  12
TORSDOF 4
ENDMDL
MODEL 2
REMARK VINA RESULT:      -7.5      3.547      8.647
REMARK  Name = 
REMARK  4 active torsions:
REMARK  status: ('A' for Active; 'I' for Inactive)
REMARK    1  A    between atoms: C_2  and  C_4
REMARK    2  A    between atoms: C_7  and  C_8
REMARK    3  A    between atoms: N_9  and  C_10
REMARK    4  A    between atoms: C_14  and  C_15
REMARK                            x       y       z     vdW  Elec       q    Type
REMARK                         _______ _______ _______ _____ _____    ______ ____
ROOT
ATOM      1  C   UNL     1      16.740  10.096  35.515  0.00  0.00    +0.000 C 
ATOM      2  N   UNL     1      17.340  10.730  36.460  0.00  0.00    +0.000 NA
ENDROOT
BRANCH   1   6
ATOM      3  C   UNL     1      15.385  12.177  32.056  0.00  0.00    +0.000 A 
ATOM      4  C   UNL     1      16.331  11.171  31.923  0.00  0.00    +0.000 A 
ATOM      5  C   UNL     1      16.754  10.513  33.053  0.00  0.00    +0.000 A 
ATOM      6  C   UNL     1      16.303  10.783  34.305  0.00  0.00    +0.000 A 
ATOM      7  C   UNL     1      15.351  11.795  34.446  0.00  0.00    +0.000 A 
ATOM      8  C   UNL     1      14.912  12.472  33.318  0.00  0.00    +0.000 A 
BRANCH   3  10
ATOM      9  C   UNL     1      13.637  13.645  31.132  0.00  0.00    +0.000 C 
ATOM     10  C   UNL     1      14.906  12.912  30.849  0.00  0.00    +0.000 C 
ATOM     11  C   UNL     1      15.976  13.751  30.221  0.00  0.00    +0.000 C 
ENDBRANCH   3  10
ENDBRANCH   1   6
BRANCH   2  12
ATOM     12  C   UNL     1      17.787  10.120  37.656  0.00  0.00    +0.000 A 
ATOM     13  C   UNL     1      19.035   9.552  37.795  0.00  0.00    +0.000 A 
ATOM     14  C   UNL     1      19.371   8.977  39.022  0.00  0.00    +0.000 A 
ATOM     15  C   UNL     1      18.476   8.976  40.071  0.00  0.00    +0.000 A 
ATOM     16  C   UNL     1      17.211   9.544  39.949  0.00  0.00    +0.000 A 
ATOM     17  C   UNL     1      16.911  10.105  38.721  0.00  0.00    +0.000 A 
BRANCH  16  18
ATOM     18  C   UNL     1      16.268   9.542  41.059  0.00  0.00    +0.000 C 
ATOM     19  N   UNL     1      16.745   9.747  42.379  0.00  0.00    +0.000 NA
ATOM     20  O   UNL     1      15.051   9.359  40.815  0.00  0.00    +0.000 OA
ENDBRANCH  16  18
ENDBRANCH   2  12
TORSDOF 4
ENDMDL
MODEL 3
REMARK VINA RESULT:      -7.4      3.542      8.674
REMARK  Name = 
REMARK  4 active torsions:
REMARK  status: ('A' for Active; 'I' for Inactive)
REMARK    1  A    between atoms: C_2  and  C_4
REMARK    2  A    between atoms: C_7  and  C_8
REMARK    3  A    between atoms: N_9  and  C_10
REMARK    4  A    between atoms: C_14  and  C_15
REMARK                            x       y       z     vdW  Elec       q    Type
REMARK                         _______ _______ _______ _____ _____    ______ ____
ROOT
ATOM      1  C   UNL     1      16.419  10.619  36.091  0.00  0.00    +0.000 C 
ATOM      2  N   UNL     1      17.645  10.556  36.476  0.00  0.00    +0.000 NA
ENDROOT
BRANCH   1   6
ATOM      3  C   UNL     1      15.482  12.178  32.242  0.00  0.00    +0.000 A 
ATOM      4  C   UNL     1      14.755  12.599  33.346  0.00  0.00    +0.000 A 
ATOM      5  C   UNL     1      15.075  12.082  34.578  0.00  0.00    +0.000 A 
ATOM      6  C   UNL     1      16.065  11.177  34.792  0.00  0.00    +0.000 A 
ATOM      7  C   UNL     1      16.800  10.750  33.683  0.00  0.00    +0.000 A 
ATOM      8  C   UNL     1      16.492  11.259  32.431  0.00  0.00    +0.000 A 
BRANCH   3  10
ATOM      9  C   UNL     1      13.853  13.444  30.896  0.00  0.00    +0.000 C 
ATOM     10  C   UNL     1      15.158  12.719  30.889  0.00  0.00    +0.000 C 
ATOM     11  C   UNL     1      16.292  13.496  30.292  0.00  0.00    +0.000 C 
ENDBRANCH   3  10
ENDBRANCH   1   6
BRANCH   2  12
ATOM     12  C   UNL     1      18.051  10.025  37.724  0.00  0.00    +0.000 A 
ATOM     13  C   UNL     1      19.311   9.515  37.955  0.00  0.00    +0.000 A 
ATOM     14  C   UNL     1      19.603   9.017  39.226  0.00  0.00    +0.000 A 
ATOM     15  C   UNL     1      18.655   9.035  40.228  0.00  0.00    +0.000 A 
ATOM     16  C   UNL     1      17.379   9.547  40.012  0.00  0.00    +0.000 A 
ATOM     17  C   UNL     1      17.122  10.032  38.743  0.00  0.00    +0.000 A 
BRANCH  16  18
ATOM     18  C   UNL     1      16.380   9.564  41.072  0.00  0.00    +0.000 C 
ATOM     19  N   UNL     1      16.790   9.786  42.412  0.00  0.00    +0.000 NA
ATOM     20  O   UNL     1      15.176   9.383  40.769  0.00  0.00    +0.000 OA
ENDBRANCH  16  18
ENDBRANCH   2  12
TORSDOF 4
ENDMDL
MODEL 4
REMARK VINA RESULT:      -7.3      1.988      2.948
REMARK  Name = 
REMARK  4 active torsions:
REMARK  status: ('A' for Active; 'I' for Inactive)
REMARK    1  A    between atoms: C_2  and  C_4
REMARK    2  A    between atoms: C_7  and  C_8
REMARK    3  A    between atoms: N_9  and  C_10
REMARK    4  A    between atoms: C_14  and  C_15
REMARK                            x       y       z     vdW  Elec       q    Type
REMARK                         _______ _______ _______ _____ _____    ______ ____
ROOT
ATOM      1  C   UNL     1      16.396  11.114  35.571  0.00  0.00    +0.000 C 
ATOM      2  N   UNL     1      16.396  10.515  34.432  0.00  0.00    +0.000 NA
ENDROOT
BRANCH   1   6
ATOM      3  C   UNL     1      17.936   9.305  39.104  0.00  0.00    +0.000 A 
ATOM      4  C   UNL     1      18.601   9.128  37.899  0.00  0.00    +0.000 A 
ATOM      5  C   UNL     1      18.085   9.721  36.772  0.00  0.00    +0.000 A 
ATOM      6  C   UNL     1      16.957  10.477  36.756  0.00  0.00    +0.000 A 
ATOM      7  C   UNL     1      16.283  10.658  37.967  0.00  0.00    +0.000 A 
ATOM      8  C   UNL     1      16.787  10.068  39.116  0.00  0.00    +0.000 A 
BRANCH   3  10
ATOM      9  C   UNL     1      17.475   7.732  40.943  0.00  0.00    +0.000 C 
ATOM     10  C   UNL     1      18.469   8.673  40.347  0.00  0.00    +0.000 C 
ATOM     11  C   UNL     1      19.836   8.090  40.157  0.00  0.00    +0.000 C 
ENDBRANCH   3  10
ENDBRANCH   1   6
BRANCH   2  12
ATOM     12  C   UNL     1      15.867  11.080  33.247  0.00  0.00    +0.000 A 
ATOM     13  C   UNL     1      16.043  10.521  31.999  0.00  0.00    +0.000 A 
ATOM     14  C   UNL     1      15.477  11.164  30.897  0.00  0.00    +0.000 A 
ATOM     15  C   UNL     1      14.756  12.331  31.052  0.00  0.00    +0.000 A 
ATOM     16  C   UNL     1      14.569  12.909  32.304  0.00  0.00    +0.000 A 
ATOM     17  C   UNL     1      15.143  12.247  33.374  0.00  0.00    +0.000 A 
BRANCH  16  18
ATOM     18  C   UNL     1      13.808  14.140  32.464  0.00  0.00    +0.000 C 
ATOM     19  N   UNL     1      13.305  14.488  33.745  0.00  0.00    +0.000 NA
ATOM     20  O   UNL     1      13.618  14.866  31.459  0.00  0.00    +0.000 OA
ENDBRANCH  16  18
ENDBRANCH   2  12
TORSDOF 4
ENDMDL
MODEL 5
REMARK VINA RESULT:      -7.0     21.565     23.578
REMARK  Name = 
REMARK  4 active torsions:
REMARK  status: ('A' for Active; 'I' for Inactive)
REMARK    1  A    between atoms: C_2  and  C_4
REMARK    2  A    between atoms: C_7  and  C_8
REMARK    3  A    between atoms: N_9  and  C_10
REMARK    4  A    between atoms: C_14  and  C_15
REMARK                            x       y       z     vdW  Elec       q    Type
REMARK                         _______ _______ _______ _____ _____    ______ ____
ROOT
ATOM      1  C   UNL     1      33.810  -1.042  33.457  0.00  0.00    +0.000 C 
ATOM      2  N   UNL     1      33.036  -1.839  34.105  0.00  0.00    +0.000 NA
ENDROOT
BRANCH   1   6
ATOM      3  C   UNL     1      33.777   3.172  34.068  0.00  0.00    +0.000 A 
ATOM      4  C   UNL     1      33.676   2.321  35.159  0.00  0.00    +0.000 A 
ATOM      5  C   UNL     1      33.689   0.965  34.938  0.00  0.00    +0.000 A 
ATOM      6  C   UNL     1      33.795   0.394  33.710  0.00  0.00    +0.000 A 
ATOM      7  C   UNL     1      33.896   1.246  32.608  0.00  0.00    +0.000 A 
ATOM      8  C   UNL     1      33.884   2.617  32.810  0.00  0.00    +0.000 A 
BRANCH   3  10
ATOM      9  C   UNL     1      32.470   5.246  33.830  0.00  0.00    +0.000 C 
ATOM     10  C   UNL     1      33.765   4.650  34.274  0.00  0.00    +0.000 C 
ATOM     11  C   UNL     1      34.183   5.043  35.657  0.00  0.00    +0.000 C 
ENDBRANCH   3  10
ENDBRANCH   1   6
BRANCH   2  12
ATOM     12  C   UNL     1      33.005  -3.240  33.904  0.00  0.00    +0.000 A 
ATOM     13  C   UNL     1      32.371  -4.113  34.763  0.00  0.00    +0.000 A 
ATOM     14  C   UNL     1      32.404  -5.477  34.467  0.00  0.00    +0.000 A 
ATOM     15  C   UNL     1      33.053  -5.942  33.342  0.00  0.00    +0.000 A 
ATOM     16  C   UNL     1      33.698  -5.074  32.464  0.00  0.00    +0.000 A 
ATOM     17  C   UNL     1      33.647  -3.731  32.786  0.00  0.00    +0.000 A 
BRANCH  16  18
ATOM     18  C   UNL     1      34.383  -5.568  31.277  0.00  0.00    +0.000 C 
ATOM     19  N   UNL     1      33.744  -5.476  30.014  0.00  0.00    +0.000 NA
ATOM     20  O   UNL     1      35.528  -6.064  31.406  0.00  0.00    +0.000 OA
ENDBRANCH  16  18
ENDBRANCH   2  12
TORSDOF 4
ENDMDL
MODEL 6
REMARK VINA RESULT:      -6.9      3.987      8.639
REMARK  Name = 
REMARK  4 active torsions:
REMARK  status: ('A' for Active; 'I' for Inactive)
REMARK    1  A    between atoms: C_2  and  C_4
REMARK    2  A    between atoms: C_7  and  C_8
REMARK    3  A    between atoms: N_9  and  C_10
REMARK    4  A    between atoms: C_14  and  C_15
REMARK                            x       y       z     vdW  Elec       q    Type
REMARK                         _______ _______ _______ _____ _____    ______ ____
ROOT
ATOM      1  C   UNL     1      16.855  10.269  35.800  0.00  0.00    +0.000 C 
ATOM      2  N   UNL     1      17.301  10.941  36.803  0.00  0.00    +0.000 NA
ENDROOT
BRANCH   1   6
ATOM      3  C   UNL     1      15.351  12.165  32.298  0.00  0.00    +0.000 A 
ATOM      4  C   UNL     1      14.767  12.435  33.528  0.00  0.00    +0.000 A 
ATOM      5  C   UNL     1      15.269  11.812  34.644  0.00  0.00    +0.000 A 
ATOM      6  C   UNL     1      16.310  10.939  34.627  0.00  0.00    +0.000 A 
ATOM      7  C   UNL     1      16.901  10.663  33.392  0.00  0.00    +0.000 A 
ATOM      8  C   UNL     1      16.409  11.282  32.253  0.00  0.00    +0.000 A 
BRANCH   3  10
ATOM      9  C   UNL     1      13.662  13.705  31.378  0.00  0.00    +0.000 C 
ATOM     10  C   UNL     1      14.828  12.825  31.066  0.00  0.00    +0.000 C 
ATOM     11  C   UNL     1      15.906  13.490  30.266  0.00  0.00    +0.000 C 
ENDBRANCH   3  10
ENDBRANCH   1   6
BRANCH   2  12
ATOM     12  C   UNL     1      17.842  10.349  37.969  0.00  0.00    +0.000 A 
ATOM     13  C   UNL     1      17.072   9.941  39.037  0.00  0.00    +0.000 A 
ATOM     14  C   UNL     1      17.713   9.369  40.137  0.00  0.00    +0.000 A 
ATOM     15  C   UNL     1      19.083   9.214  40.157  0.00  0.00    +0.000 A 
ATOM     16  C   UNL     1      19.876   9.620  39.087  0.00  0.00    +0.000 A 
ATOM     17  C   UNL     1      19.211  10.183  38.014  0.00  0.00    +0.000 A 
BRANCH  16  18
ATOM     18  C   UNL     1      21.323   9.456  39.111  0.00  0.00    +0.000 C 
ATOM     19  N   UNL     1      22.070   9.678  37.926  0.00  0.00    +0.000 NA
ATOM     20  O   UNL     1      21.873   9.120  40.188  0.00  0.00    +0.000 OA
ENDBRANCH  16  18
ENDBRANCH   2  12
TORSDOF 4
ENDMDL
MODEL 7
REMARK VINA RESULT:      -6.6     22.540     24.255
REMARK  Name = 
REMARK  4 active torsions:
REMARK  status: ('A' for Active; 'I' for Inactive)
REMARK    1  A    between atoms: C_2  and  C_4
REMARK    2  A    between atoms: C_7  and  C_8
REMARK    3  A    between atoms: N_9  and  C_10
REMARK    4  A    between atoms: C_14  and  C_15
REMARK                            x       y       z     vdW  Elec       q    Type
REMARK                         _______ _______ _______ _____ _____    ______ ____
ROOT
ATOM      1  C   UNL     1      22.134  -7.854  25.157  0.00  0.00    +0.000 C 
ATOM      2  N   UNL     1      21.529  -6.719  25.166  0.00  0.00    +0.000 NA
ENDROOT
BRANCH   1   6
ATOM      3  C   UNL     1      25.864  -8.216  23.136  0.00  0.00    +0.000 A 
ATOM      4  C   UNL     1      25.227  -9.356  23.608  0.00  0.00    +0.000 A 
ATOM      5  C   UNL     1      24.025  -9.215  24.257  0.00  0.00    +0.000 A 
ATOM      6  C   UNL     1      23.409  -8.023  24.471  0.00  0.00    +0.000 A 
ATOM      7  C   UNL     1      24.045  -6.873  23.998  0.00  0.00    +0.000 A 
ATOM      8  C   UNL     1      25.260  -6.993  23.341  0.00  0.00    +0.000 A 
BRANCH   3  10
ATOM      9  C   UNL     1      27.070  -9.257  21.257  0.00  0.00    +0.000 C 
ATOM     10  C   UNL     1      27.172  -8.335  22.427  0.00  0.00    +0.000 C 
ATOM     11  C   UNL     1      27.781  -7.003  22.113  0.00  0.00    +0.000 C 
ENDBRANCH   3  10
ENDBRANCH   1   6
BRANCH   2  12
ATOM     12  C   UNL     1      20.291  -6.492  25.813  0.00  0.00    +0.000 A 
ATOM     13  C   UNL     1      19.724  -5.243  25.947  0.00  0.00    +0.000 A 
ATOM     14  C   UNL     1      18.498  -5.136  26.605  0.00  0.00    +0.000 A 
ATOM     15  C   UNL     1      17.866  -6.254  27.110  0.00  0.00    +0.000 A 
ATOM     16  C   UNL     1      18.424  -7.523  26.985  0.00  0.00    +0.000 A 
ATOM     17  C   UNL     1      19.639  -7.594  26.328  0.00  0.00    +0.000 A 
BRANCH  16  18
ATOM     18  C   UNL     1      17.755  -8.701  27.519  0.00  0.00    +0.000 C 
ATOM     19  N   UNL     1      18.059  -9.140  28.833  0.00  0.00    +0.000 NA
ATOM     20  O   UNL     1      16.921  -9.299  26.798  0.00  0.00    +0.000 OA
ENDBRANCH  16  18
ENDBRANCH   2  12
TORSDOF 4
ENDMDL
MODEL 8
REMARK VINA RESULT:      -6.5     21.166     23.344
REMARK  Name = 
REMARK  4 active torsions:
REMARK  status: ('A' for Active; 'I' for Inactive)
REMARK    1  A    between atoms: C_2  and  C_4
REMARK    2  A    between atoms: C_7  and  C_8
REMARK    3  A    between atoms: N_9  and  C_10
REMARK    4  A    between atoms: C_14  and  C_15
REMARK                            x       y       z     vdW  Elec       q    Type
REMARK                         _______ _______ _______ _____ _____    ______ ____
ROOT
ATOM      1  C   UNL     1      33.826  -1.040  33.383  0.00  0.00    +0.000 C 
ATOM      2  N   UNL     1      33.049  -1.811  34.060  0.00  0.00    +0.000 NA
ENDROOT
BRANCH   1   6
ATOM      3  C   UNL     1      33.747   3.162  34.064  0.00  0.00    +0.000 A 
ATOM      4  C   UNL     1      33.882   2.681  32.769  0.00  0.00    +0.000 A 
ATOM      5  C   UNL     1      33.905   1.321  32.573  0.00  0.00    +0.000 A 
ATOM      6  C   UNL     1      33.804   0.405  33.571  0.00  0.00    +0.000 A 
ATOM      7  C   UNL     1      33.668   0.884  34.877  0.00  0.00    +0.000 A 
ATOM      8  C   UNL     1      33.643   2.253  35.096  0.00  0.00    +0.000 A 
BRANCH   3  10
ATOM      9  C   UNL     1      32.461   5.244  33.789  0.00  0.00    +0.000 C 
ATOM     10  C   UNL     1      33.720   4.633  34.311  0.00  0.00    +0.000 C 
ATOM     11  C   UNL     1      34.035   4.987  35.732  0.00  0.00    +0.000 C 
ENDBRANCH   3  10
ENDBRANCH   1   6
BRANCH   2  12
ATOM     12  C   UNL     1      33.024  -3.220  33.922  0.00  0.00    +0.000 A 
ATOM     13  C   UNL     1      33.641  -3.889  32.887  0.00  0.00    +0.000 A 
ATOM     14  C   UNL     1      33.552  -5.282  32.850  0.00  0.00    +0.000 A 
ATOM     15  C   UNL     1      32.863  -5.973  33.825  0.00  0.00    +0.000 A 
ATOM     16  C   UNL     1      32.234  -5.313  34.877  0.00  0.00    +0.000 A 
ATOM     17  C   UNL     1      32.342  -3.935  34.884  0.00  0.00    +0.000 A 
BRANCH  16  18
ATOM     18  C   UNL     1      31.508  -6.046  35.905  0.00  0.00    +0.000 C 
ATOM     19  N   UNL     1      30.170  -6.450  35.660  0.00  0.00    +0.000 NA
ATOM     20  O   UNL     1      32.090  -6.302  36.987  0.00  0.00    +0.000 OA
ENDBRANCH  16  18
ENDBRANCH   2  12
TORSDOF 4
ENDMDL
MODEL 9
REMARK VINA RESULT:      -6.5     19.841     21.710
REMARK  Name = 
REMARK  4 active torsions:
REMARK  status: ('A' for Active; 'I' for Inactive)
REMARK    1  A    between atoms: C_2  and  C_4
REMARK    2  A    between atoms: C_7  and  C_8
REMARK    3  A    between atoms: N_9  and  C_10
REMARK    4  A    between atoms: C_14  and  C_15
REMARK                            x       y       z     vdW  Elec       q    Type
REMARK                         _______ _______ _______ _____ _____    ______ ____
ROOT
ATOM      1  C   UNL     1      35.038   4.643  35.062  0.00  0.00    +0.000 C 
ATOM      2  N   UNL     1      34.099   4.196  34.303  0.00  0.00    +0.000 NA
ENDROOT
BRANCH   1   6
ATOM      3  C   UNL     1      35.304   8.805  35.919  0.00  0.00    +0.000 A 
ATOM      4  C   UNL     1      36.357   8.169  35.277  0.00  0.00    +0.000 A 
ATOM      5  C   UNL     1      36.249   6.826  35.011  0.00  0.00    +0.000 A 
ATOM      6  C   UNL     1      35.170   6.068  35.336  0.00  0.00    +0.000 A 
ATOM      7  C   UNL     1      34.106   6.703  35.983  0.00  0.00    +0.000 A 
ATOM      8  C   UNL     1      34.196   8.058  36.261  0.00  0.00    +0.000 A 
BRANCH   3  10
ATOM      9  C   UNL     1      36.546  10.894  35.519  0.00  0.00    +0.000 C 
ATOM     10  C   UNL     1      35.390  10.263  36.224  0.00  0.00    +0.000 C 
ATOM     11  C   UNL     1      34.086  10.972  36.026  0.00  0.00    +0.000 C 
ENDBRANCH   3  10
ENDBRANCH   1   6
BRANCH   2  12
ATOM     12  C   UNL     1      33.919   2.826  33.999  0.00  0.00    +0.000 A 
ATOM     13  C   UNL     1      34.007   2.316  32.721  0.00  0.00    +0.000 A 
ATOM     14  C   UNL     1      33.811   0.947  32.537  0.00  0.00    +0.000 A 
ATOM     15  C   UNL     1      33.536   0.121  33.607  0.00  0.00    +0.000 A 
ATOM     16  C   UNL     1      33.443   0.618  34.904  0.00  0.00    +0.000 A 
ATOM     17  C   UNL     1      33.642   1.978  35.052  0.00  0.00    +0.000 A 
BRANCH  16  18
ATOM     18  C   UNL     1      33.152  -0.256  36.032  0.00  0.00    +0.000 C 
ATOM     19  N   UNL     1      34.123  -0.425  37.052  0.00  0.00    +0.000 NA
ATOM     20  O   UNL     1      32.042  -0.840  36.071  0.00  0.00    +0.000 OA
ENDBRANCH  16  18
ENDBRANCH   2  12
TORSDOF 4
ENDMDL
MODEL 10
REMARK VINA RESULT:      -6.3     19.353     20.901
REMARK  Name = 
REMARK  4 active torsions:
REMARK  status: ('A' for Active; 'I' for Inactive)
REMARK    1  A    between atoms: C_2  and  C_4
REMARK    2  A    between atoms: C_7  and  C_8
REMARK    3  A    between atoms: N_9  and  C_10
REMARK    4  A    between atoms: C_14  and  C_15
REMARK                            x       y       z     vdW  Elec       q    Type
REMARK                         _______ _______ _______ _____ _____    ______ ____
ROOT
ATOM      1  C   UNL     1      29.346  23.006  26.343  0.00  0.00    +0.000 C 
ATOM      2  N   UNL     1      28.066  22.983  26.206  0.00  0.00    +0.000 NA
ENDROOT
BRANCH   1   6
ATOM      3  C   UNL     1      31.275  22.211  30.054  0.00  0.00    +0.000 A 
ATOM      4  C   UNL     1      29.977  22.701  30.049  0.00  0.00    +0.000 A 
ATOM      5  C   UNL     1      29.375  22.951  28.840  0.00  0.00    +0.000 A 
ATOM      6  C   UNL     1      29.969  22.748  27.635  0.00  0.00    +0.000 A 
ATOM      7  C   UNL     1      31.276  22.254  27.635  0.00  0.00    +0.000 A 
ATOM      8  C   UNL     1      31.902  21.996  28.845  0.00  0.00    +0.000 A 
BRANCH   3  10
ATOM      9  C   UNL     1      30.990  21.437  32.376  0.00  0.00    +0.000 C 
ATOM     10  C   UNL     1      31.958  21.930  31.351  0.00  0.00    +0.000 C 
ATOM     11  C   UNL     1      33.175  21.072  31.189  0.00  0.00    +0.000 C 
ENDBRANCH   3  10
ENDBRANCH   1   6
BRANCH   2  12
ATOM     12  C   UNL     1      27.403  23.226  24.980  0.00  0.00    +0.000 A 
ATOM     13  C   UNL     1      26.095  22.860  24.742  0.00  0.00    +0.000 A 
ATOM     14  C   UNL     1      25.541  23.150  23.494  0.00  0.00    +0.000 A 
ATOM     15  C   UNL     1      26.282  23.787  22.521  0.00  0.00    +0.000 A 
ATOM     16  C   UNL     1      27.604  24.162  22.744  0.00  0.00    +0.000 A 
ATOM     17  C   UNL     1      28.122  23.862  23.989  0.00  0.00    +0.000 A 
BRANCH  16  18
ATOM     18  C   UNL     1      28.384  24.835  21.714  0.00  0.00    +0.000 C 
ATOM     19  N   UNL     1      29.564  24.221  21.221  0.00  0.00    +0.000 NA
ATOM     20  O   UNL     1      27.988  25.946  21.287  0.00  0.00    +0.000 OA
ENDBRANCH  16  18
ENDBRANCH   2  12
TORSDOF 4
ENDMDL
