MODEL 1
REMARK VINA RESULT:      -6.7      0.000      0.000
REMARK  Name = 
REMARK  6 active torsions:
REMARK  status: ('A' for Active; 'I' for Inactive)
REMARK    1  A    between atoms: C_2  and  C_3
REMARK    2  A    between atoms: CA_4  and  C_5
REMARK    3  A    between atoms: C_8  and  C_9
REMARK    4  A    between atoms: C_9  and  O_11
REMARK    5  A    between atoms: O_11  and  C_12
REMARK    6  A    between atoms: C_12  and  C_13
REMARK                            x       y       z     vdW  Elec       q    Type
REMARK                         _______ _______ _______ _____ _____    ______ ____
ROOT
ATOM      1  C   UNL     1      17.400   9.950  38.842  0.00  0.00    +0.000 A 
ATOM      2  CA  UNL     1      18.578   9.418  38.369  0.00  0.00    +0.000 A 
ATOM      3  N   UNL     1      18.545   9.584  37.031  0.00  0.00    +0.000 NA
ATOM      4  C   UNL     1      17.419  10.190  36.645  0.00  0.00    +0.000 A 
ATOM      5  C   UNL     1      16.681  10.429  37.773  0.00  0.00    +0.000 A 
ATOM      6  C   UNL     1      15.365  11.077  37.837  0.00  0.00    +0.000 C 
ENDROOT
BRANCH   1   8
ATOM      7  C   UNL     1      16.341   8.711  40.731  0.00  0.00    +0.000 C 
ATOM      8  C   UNL     1      17.041   9.960  40.271  0.00  0.00    +0.000 C 
ENDBRANCH   1   8
BRANCH   2   9
ATOM      9  C   UNL     1      19.663   8.808  39.175  0.00  0.00    +0.000 C 
ATOM     10  O   UNL     1      20.838   9.272  39.101  0.00  0.00    +0.000 OA
ENDBRANCH   2   9
BRANCH   4  11
ATOM     11  C   UNL     1      17.057  10.474  35.265  0.00  0.00    +0.000 C 
ATOM     12  O   UNL     1      17.455   9.753  34.314  0.00  0.00    +0.000 OA
BRANCH  11  13
ATOM     13  O   UNL     1      16.254  11.553  34.906  0.00  0.00    +0.000 OA
BRANCH  13  14
ATOM     14  C   UNL     1      15.201  11.377  34.042  0.00  0.00    +0.000 C 
BRANCH  14  15
ATOM     15  C   UNL     1      15.118  12.224  32.860  0.00  0.00    +0.000 A 
ATOM     16  C   UNL     1      16.102  12.014  31.889  0.00  0.00    +0.000 A 
ATOM     17  C   UNL     1      16.156  12.754  30.740  0.00  0.00    +0.000 A 
ATOM     18  C   UNL     1      15.204  13.746  30.515  0.00  0.00    +0.000 A 
ATOM     19  C   UNL     1      14.240  13.947  31.476  0.00  0.00    +0.000 A 
ATOM     20  C   UNL     1      14.198  13.204  32.622  0.00  0.00    +0.000 A 
ENDBRANCH  14  15
ENDBRANCH  13  14
ENDBRANCH  11  13
ENDBRANCH   4  11
TORSDOF 6
ENDMDL
MODEL 2
REMARK VINA RESULT:      -6.1     18.598     20.714
REMARK  Name = 
REMARK  6 active torsions:
REMARK  status: ('A' for Active; 'I' for Inactive)
REMARK    1  A    between atoms: C_2  and  C_3
REMARK    2  A    between atoms: CA_4  and  C_5
REMARK    3  A    between atoms: C_8  and  C_9
REMARK    4  A    between atoms: C_9  and  O_11
REMARK    5  A    between atoms: O_11  and  C_12
REMARK    6  A    between atoms: C_12  and  C_13
REMARK                            x       y       z     vdW  Elec       q    Type
REMARK                         _______ _______ _______ _____ _____    ______ ____
ROOT
ATOM      1  C   UNL     1      25.631  24.333  26.653  0.00  0.00    +0.000 A 
ATOM      2  CA  UNL     1      24.865  25.254  25.975  0.00  0.00    +0.000 A 
ATOM      3  N   UNL     1      24.979  24.938  24.669  0.00  0.00    +0.000 NA
ATOM      4  C   UNL     1      25.768  23.875  24.495  0.00  0.00    +0.000 A 
ATOM      5  C   UNL     1      26.192  23.477  25.735  0.00  0.00    +0.000 A 
ATOM      6  C   UNL     1      27.080  22.346  26.036  0.00  0.00    +0.000 C 
ENDROOT
BRANCH   1   8
ATOM      7  C   UNL     1      26.980  25.101  28.606  0.00  0.00    +0.000 C 
ATOM      8  C   UNL     1      25.781  24.336  28.118  0.00  0.00    +0.000 C 
ENDBRANCH   1   8
BRANCH   2   9
ATOM      9  C   UNL     1      24.066  26.352  26.571  0.00  0.00    +0.000 C 
ATOM     10  O   UNL     1      22.810  26.228  26.679  0.00  0.00    +0.000 OA
ENDBRANCH   2   9
BRANCH   4  11
ATOM     11  C   UNL     1      26.131  23.308  23.205  0.00  0.00    +0.000 C 
ATOM     12  O   UNL     1      25.278  22.763  22.458  0.00  0.00    +0.000 OA
BRANCH  11  13
ATOM     13  O   UNL     1      27.433  23.329  22.715  0.00  0.00    +0.000 OA
BRANCH  13  14
ATOM     14  C   UNL     1      28.261  24.390  22.990  0.00  0.00    +0.000 C 
BRANCH  14  15
ATOM     15  C   UNL     1      29.507  24.139  23.701  0.00  0.00    +0.000 A 
ATOM     16  C   UNL     1      30.281  25.268  23.991  0.00  0.00    +0.000 A 
ATOM     17  C   UNL     1      31.483  25.175  24.636  0.00  0.00    +0.000 A 
ATOM     18  C   UNL     1      31.961  23.925  25.025  0.00  0.00    +0.000 A 
ATOM     19  C   UNL     1      31.194  22.821  24.734  0.00  0.00    +0.000 A 
ATOM     20  C   UNL     1      29.996  22.925  24.087  0.00  0.00    +0.000 A 
ENDBRANCH  14  15
ENDBRANCH  13  14
ENDBRANCH  11  13
ENDBRANCH   4  11
TORSDOF 6
ENDMDL
MODEL 3
REMARK VINA RESULT:      -6.1     20.833     24.150
REMARK  Name = 
REMARK  6 active torsions:
REMARK  status: ('A' for Active; 'I' for Inactive)
REMARK    1  A    between atoms: C_2  and  C_3
REMARK    2  A    between atoms: CA_4  and  C_5
REMARK    3  A    between atoms: C_8  and  C_9
REMARK    4  A    between atoms: C_9  and  O_11
REMARK    5  A    between atoms: O_11  and  C_12
REMARK    6  A    between atoms: C_12  and  C_13
REMARK                            x       y       z     vdW  Elec       q    Type
REMARK                         _______ _______ _______ _____ _____    ______ ____
ROOT
ATOM      1  C   UNL     1      29.001  27.514  20.497  0.00  0.00    +0.000 A 
ATOM      2  CA  UNL     1      29.750  26.827  19.569  0.00  0.00    +0.000 A 
ATOM      3  N   UNL     1      29.787  25.549  20.000  0.00  0.00    +0.000 NA
ATOM      4  C   UNL     1      29.103  25.401  21.137  0.00  0.00    +0.000 A 
ATOM      5  C   UNL     1      28.599  26.630  21.470  0.00  0.00    +0.000 A 
ATOM      6  C   UNL     1      27.780  26.952  22.646  0.00  0.00    +0.000 C 
ENDROOT
BRANCH   1   8
ATOM      7  C   UNL     1      29.735  29.820  21.103  0.00  0.00    +0.000 C 
ATOM      8  C   UNL     1      28.726  28.958  20.396  0.00  0.00    +0.000 C 
ENDBRANCH   1   8
BRANCH   2   9
ATOM      9  C   UNL     1      30.369  27.382  18.342  0.00  0.00    +0.000 C 
ATOM     10  O   UNL     1      31.593  27.163  18.100  0.00  0.00    +0.000 OA
ENDBRANCH   2   9
BRANCH   4  11
ATOM     11  C   UNL     1      28.986  24.158  21.884  0.00  0.00    +0.000 C 
ATOM     12  O   UNL     1      27.984  23.406  21.766  0.00  0.00    +0.000 OA
BRANCH  11  13
ATOM     13  O   UNL     1      29.964  23.721  22.773  0.00  0.00    +0.000 OA
BRANCH  13  14
ATOM     14  C   UNL     1      30.031  24.241  24.042  0.00  0.00    +0.000 C 
BRANCH  14  15
ATOM     15  C   UNL     1      29.390  23.514  25.130  0.00  0.00    +0.000 A 
ATOM     16  C   UNL     1      30.251  22.849  26.008  0.00  0.00    +0.000 A 
ATOM     17  C   UNL     1      29.784  22.111  27.061  0.00  0.00    +0.000 A 
ATOM     18  C   UNL     1      28.411  22.015  27.279  0.00  0.00    +0.000 A 
ATOM     19  C   UNL     1      27.572  22.671  26.409  0.00  0.00    +0.000 A 
ATOM     20  C   UNL     1      28.049  23.403  25.359  0.00  0.00    +0.000 A 
ENDBRANCH  14  15
ENDBRANCH  13  14
ENDBRANCH  11  13
ENDBRANCH   4  11
TORSDOF 6
ENDMDL
MODEL 4
REMARK VINA RESULT:      -6.1     20.566     23.921
REMARK  Name = 
REMARK  6 active torsions:
REMARK  status: ('A' for Active; 'I' for Inactive)
REMARK    1  A    between atoms: C_2  and  C_3
REMARK    2  A    between atoms: CA_4  and  C_5
REMARK    3  A    between atoms: C_8  and  C_9
REMARK    4  A    between atoms: C_9  and  O_11
REMARK    5  A    between atoms: O_11  and  C_12
REMARK    6  A    between atoms: C_12  and  C_13
REMARK                            x       y       z     vdW  Elec       q    Type
REMARK                         _______ _______ _______ _____ _____    ______ ____
ROOT
ATOM      1  C   UNL     1      29.152  27.499  20.471  0.00  0.00    +0.000 A 
ATOM      2  CA  UNL     1      29.772  26.713  19.527  0.00  0.00    +0.000 A 
ATOM      3  N   UNL     1      29.790  25.466  20.042  0.00  0.00    +0.000 NA
ATOM      4  C   UNL     1      29.216  25.430  21.246  0.00  0.00    +0.000 A 
ATOM      5  C   UNL     1      28.807  26.704  21.538  0.00  0.00    +0.000 A 
ATOM      6  C   UNL     1      28.125  27.146  22.761  0.00  0.00    +0.000 C 
ENDROOT
BRANCH   1   8
ATOM      7  C   UNL     1      30.031  29.798  20.880  0.00  0.00    +0.000 C 
ATOM      8  C   UNL     1      28.938  28.946  20.296  0.00  0.00    +0.000 C 
ENDBRANCH   1   8
BRANCH   2   9
ATOM      9  C   UNL     1      30.292  27.152  18.210  0.00  0.00    +0.000 C 
ATOM     10  O   UNL     1      31.541  27.262  18.032  0.00  0.00    +0.000 OA
ENDBRANCH   2   9
BRANCH   4  11
ATOM     11  C   UNL     1      29.115  24.247  22.087  0.00  0.00    +0.000 C 
ATOM     12  O   UNL     1      30.003  23.955  22.930  0.00  0.00    +0.000 OA
BRANCH  11  13
ATOM     13  O   UNL     1      28.041  23.365  22.015  0.00  0.00    +0.000 OA
BRANCH  13  14
ATOM     14  C   UNL     1      26.784  23.770  22.393  0.00  0.00    +0.000 C 
BRANCH  14  15
ATOM     15  C   UNL     1      26.478  23.865  23.814  0.00  0.00    +0.000 A 
ATOM     16  C   UNL     1      27.035  22.871  24.625  0.00  0.00    +0.000 A 
ATOM     17  C   UNL     1      26.811  22.827  25.973  0.00  0.00    +0.000 A 
ATOM     18  C   UNL     1      26.011  23.799  26.571  0.00  0.00    +0.000 A 
ATOM     19  C   UNL     1      25.467  24.772  25.765  0.00  0.00    +0.000 A 
ATOM     20  C   UNL     1      25.694  24.804  24.419  0.00  0.00    +0.000 A 
ENDBRANCH  14  15
ENDBRANCH  13  14
ENDBRANCH  11  13
ENDBRANCH   4  11
TORSDOF 6
ENDMDL
MODEL 5
REMARK VINA RESULT:      -5.9     18.767     21.578
REMARK  Name = 
REMARK  6 active torsions:
REMARK  status: ('A' for Active; 'I' for Inactive)
REMARK    1  A    between atoms: C_2  and  C_3
REMARK    2  A    between atoms: CA_4  and  C_5
REMARK    3  A    between atoms: C_8  and  C_9
REMARK    4  A    between atoms: C_9  and  O_11
REMARK    5  A    between atoms: O_11  and  C_12
REMARK    6  A    between atoms: C_12  and  C_13
REMARK                            x       y       z     vdW  Elec       q    Type
REMARK                         _______ _______ _______ _____ _____    ______ ____
ROOT
ATOM      1  C   UNL     1      29.306  24.380  23.166  0.00  0.00    +0.000 A 
ATOM      2  CA  UNL     1      28.820  24.990  22.031  0.00  0.00    +0.000 A 
ATOM      3  N   UNL     1      27.509  24.678  21.980  0.00  0.00    +0.000 NA
ATOM      4  C   UNL     1      27.150  23.915  23.015  0.00  0.00    +0.000 A 
ATOM      5  C   UNL     1      28.271  23.713  23.776  0.00  0.00    +0.000 A 
ATOM      6  C   UNL     1      28.357  22.931  25.017  0.00  0.00    +0.000 C 
ENDROOT
BRANCH   1   8
ATOM      7  C   UNL     1      30.992  25.580  24.559  0.00  0.00    +0.000 C 
ATOM      8  C   UNL     1      30.716  24.469  23.584  0.00  0.00    +0.000 C 
ENDBRANCH   1   8
BRANCH   2   9
ATOM      9  C   UNL     1      29.585  25.830  21.079  0.00  0.00    +0.000 C 
ATOM     10  O   UNL     1      29.802  25.410  19.904  0.00  0.00    +0.000 OA
ENDBRANCH   2   9
BRANCH   4  11
ATOM     11  C   UNL     1      25.817  23.371  23.228  0.00  0.00    +0.000 C 
ATOM     12  O   UNL     1      25.257  22.638  22.373  0.00  0.00    +0.000 OA
BRANCH  11  13
ATOM     13  O   UNL     1      25.079  23.624  24.380  0.00  0.00    +0.000 OA
BRANCH  13  14
ATOM     14  C   UNL     1      25.008  24.896  24.893  0.00  0.00    +0.000 C 
BRANCH  14  15
ATOM     15  C   UNL     1      25.692  25.183  26.147  0.00  0.00    +0.000 A 
ATOM     16  C   UNL     1      25.149  24.583  27.288  0.00  0.00    +0.000 A 
ATOM     17  C   UNL     1      25.678  24.784  28.533  0.00  0.00    +0.000 A 
ATOM     18  C   UNL     1      26.795  25.604  28.683  0.00  0.00    +0.000 A 
ATOM     19  C   UNL     1      27.321  26.191  27.555  0.00  0.00    +0.000 A 
ATOM     20  C   UNL     1      26.782  25.986  26.317  0.00  0.00    +0.000 A 
ENDBRANCH  14  15
ENDBRANCH  13  14
ENDBRANCH  11  13
ENDBRANCH   4  11
TORSDOF 6
ENDMDL
MODEL 6
REMARK VINA RESULT:      -5.8     28.511     30.993
REMARK  Name = 
REMARK  6 active torsions:
REMARK  status: ('A' for Active; 'I' for Inactive)
REMARK    1  A    between atoms: C_2  and  C_3
REMARK    2  A    between atoms: CA_4  and  C_5
REMARK    3  A    between atoms: C_8  and  C_9
REMARK    4  A    between atoms: C_9  and  O_11
REMARK    5  A    between atoms: O_11  and  C_12
REMARK    6  A    between atoms: C_12  and  C_13
REMARK                            x       y       z     vdW  Elec       q    Type
REMARK                         _______ _______ _______ _____ _____    ______ ____
ROOT
ATOM      1  C   UNL     1      32.786  20.813   9.069  0.00  0.00    +0.000 A 
ATOM      2  CA  UNL     1      31.463  20.762   8.690  0.00  0.00    +0.000 A 
ATOM      3  N   UNL     1      30.751  21.020   9.806  0.00  0.00    +0.000 NA
ATOM      4  C   UNL     1      31.551  21.232  10.854  0.00  0.00    +0.000 A 
ATOM      5  C   UNL     1      32.841  21.105  10.411  0.00  0.00    +0.000 A 
ATOM      6  C   UNL     1      34.061  21.253  11.215  0.00  0.00    +0.000 C 
ENDROOT
BRANCH   1   8
ATOM      7  C   UNL     1      34.463  19.184   8.200  0.00  0.00    +0.000 C 
ATOM      8  C   UNL     1      33.898  20.576   8.133  0.00  0.00    +0.000 C 
ENDBRANCH   1   8
BRANCH   2   9
ATOM      9  C   UNL     1      30.940  20.495   7.328  0.00  0.00    +0.000 C 
ATOM     10  O   UNL     1      30.846  21.444   6.495  0.00  0.00    +0.000 OA
ENDBRANCH   2   9
BRANCH   4  11
ATOM     11  C   UNL     1      31.096  21.491  12.211  0.00  0.00    +0.000 C 
ATOM     12  O   UNL     1      31.008  20.573  13.067  0.00  0.00    +0.000 OA
BRANCH  11  13
ATOM     13  O   UNL     1      30.729  22.760  12.651  0.00  0.00    +0.000 OA
BRANCH  13  14
ATOM     14  C   UNL     1      29.580  22.935  13.383  0.00  0.00    +0.000 C 
BRANCH  14  15
ATOM     15  C   UNL     1      28.305  22.985  12.680  0.00  0.00    +0.000 A 
ATOM     16  C   UNL     1      27.372  23.903  13.174  0.00  0.00    +0.000 A 
ATOM     17  C   UNL     1      26.128  24.040  12.624  0.00  0.00    +0.000 A 
ATOM     18  C   UNL     1      25.767  23.250  11.534  0.00  0.00    +0.000 A 
ATOM     19  C   UNL     1      26.689  22.349  11.056  0.00  0.00    +0.000 A 
ATOM     20  C   UNL     1      27.928  22.219  11.616  0.00  0.00    +0.000 A 
ENDBRANCH  14  15
ENDBRANCH  13  14
ENDBRANCH  11  13
ENDBRANCH   4  11
TORSDOF 6
ENDMDL
MODEL 7
REMARK VINA RESULT:      -5.8     16.438     18.851
REMARK  Name = 
REMARK  6 active torsions:
REMARK  status: ('A' for Active; 'I' for Inactive)
REMARK    1  A    between atoms: C_2  and  C_3
REMARK    2  A    between atoms: CA_4  and  C_5
REMARK    3  A    between atoms: C_8  and  C_9
REMARK    4  A    between atoms: C_9  and  O_11
REMARK    5  A    between atoms: O_11  and  C_12
REMARK    6  A    between atoms: C_12  and  C_13
REMARK                            x       y       z     vdW  Elec       q    Type
REMARK                         _______ _______ _______ _____ _____    ______ ____
ROOT
ATOM      1  C   UNL     1      25.137  25.581  29.063  0.00  0.00    +0.000 A 
ATOM      2  CA  UNL     1      25.116  25.705  30.434  0.00  0.00    +0.000 A 
ATOM      3  N   UNL     1      25.631  24.555  30.914  0.00  0.00    +0.000 NA
ATOM      4  C   UNL     1      25.974  23.726  29.925  0.00  0.00    +0.000 A 
ATOM      5  C   UNL     1      25.669  24.354  28.746  0.00  0.00    +0.000 A 
ATOM      6  C   UNL     1      25.871  23.822  27.393  0.00  0.00    +0.000 C 
ENDROOT
BRANCH   1   8
ATOM      7  C   UNL     1      23.218  26.445  27.723  0.00  0.00    +0.000 C 
ATOM      8  C   UNL     1      24.646  26.632  28.155  0.00  0.00    +0.000 C 
ENDBRANCH   1   8
BRANCH   2   9
ATOM      9  C   UNL     1      24.641  26.874  31.212  0.00  0.00    +0.000 C 
ATOM     10  O   UNL     1      24.036  26.694  32.310  0.00  0.00    +0.000 OA
ENDBRANCH   2   9
BRANCH   4  11
ATOM     11  C   UNL     1      26.515  22.388  30.108  0.00  0.00    +0.000 C 
ATOM     12  O   UNL     1      25.939  21.533  30.830  0.00  0.00    +0.000 OA
BRANCH  11  13
ATOM     13  O   UNL     1      27.697  21.967  29.504  0.00  0.00    +0.000 OA
BRANCH  13  14
ATOM     14  C   UNL     1      28.825  22.748  29.567  0.00  0.00    +0.000 C 
BRANCH  14  15
ATOM     15  C   UNL     1      29.662  22.863  28.381  0.00  0.00    +0.000 A 
ATOM     16  C   UNL     1      29.179  22.233  27.230  0.00  0.00    +0.000 A 
ATOM     17  C   UNL     1      29.874  22.243  26.052  0.00  0.00    +0.000 A 
ATOM     18  C   UNL     1      31.099  22.903  25.982  0.00  0.00    +0.000 A 
ATOM     19  C   UNL     1      31.568  23.519  27.119  0.00  0.00    +0.000 A 
ATOM     20  C   UNL     1      30.866  23.499  28.291  0.00  0.00    +0.000 A 
ENDBRANCH  14  15
ENDBRANCH  13  14
ENDBRANCH  11  13
ENDBRANCH   4  11
TORSDOF 6
ENDMDL
MODEL 8
REMARK VINA RESULT:      -5.8     20.206     22.528
REMARK  Name = 
REMARK  6 active torsions:
REMARK  status: ('A' for Active; 'I' for Inactive)
REMARK    1  A    between atoms: C_2  and  C_3
REMARK    2  A    between atoms: CA_4  and  C_5
REMARK    3  A    between atoms: C_8  and  C_9
REMARK    4  A    between atoms: C_9  and  O_11
REMARK    5  A    between atoms: O_11  and  C_12
REMARK    6  A    between atoms: C_12  and  C_13
REMARK                            x       y       z     vdW  Elec       q    Type
REMARK                         _______ _______ _______ _____ _____    ______ ____
ROOT
ATOM      1  C   UNL     1      28.363  25.091  22.859  0.00  0.00    +0.000 A 
ATOM      2  CA  UNL     1      27.730  23.901  22.576  0.00  0.00    +0.000 A 
ATOM      3  N   UNL     1      28.439  22.948  23.215  0.00  0.00    +0.000 NA
ATOM      4  C   UNL     1      29.470  23.473  23.880  0.00  0.00    +0.000 A 
ATOM      5  C   UNL     1      29.443  24.826  23.667  0.00  0.00    +0.000 A 
ATOM      6  C   UNL     1      30.387  25.816  24.202  0.00  0.00    +0.000 C 
ENDROOT
BRANCH   1   8
ATOM      7  C   UNL     1      28.554  26.791  21.043  0.00  0.00    +0.000 C 
ATOM      8  C   UNL     1      27.902  26.389  22.338  0.00  0.00    +0.000 C 
ENDBRANCH   1   8
BRANCH   2   9
ATOM      9  C   UNL     1      26.510  23.719  21.753  0.00  0.00    +0.000 C 
ATOM     10  O   UNL     1      25.610  22.915  22.135  0.00  0.00    +0.000 OA
ENDBRANCH   2   9
BRANCH   4  11
ATOM     11  C   UNL     1      30.454  22.709  24.633  0.00  0.00    +0.000 C 
ATOM     12  O   UNL     1      31.631  22.552  24.216  0.00  0.00    +0.000 OA
BRANCH  11  13
ATOM     13  O   UNL     1      30.161  22.103  25.851  0.00  0.00    +0.000 OA
BRANCH  13  14
ATOM     14  C   UNL     1      30.238  22.823  27.019  0.00  0.00    +0.000 C 
BRANCH  14  15
ATOM     15  C   UNL     1      31.510  22.872  27.727  0.00  0.00    +0.000 A 
ATOM     16  C   UNL     1      31.744  21.832  28.633  0.00  0.00    +0.000 A 
ATOM     17  C   UNL     1      32.887  21.766  29.381  0.00  0.00    +0.000 A 
ATOM     18  C   UNL     1      33.859  22.755  29.241  0.00  0.00    +0.000 A 
ATOM     19  C   UNL     1      33.619  23.775  28.349  0.00  0.00    +0.000 A 
ATOM     20  C   UNL     1      32.472  23.832  27.610  0.00  0.00    +0.000 A 
ENDBRANCH  14  15
ENDBRANCH  13  14
ENDBRANCH  11  13
ENDBRANCH   4  11
TORSDOF 6
ENDMDL
MODEL 9
REMARK VINA RESULT:      -5.7     17.738     20.544
REMARK  Name = 
REMARK  6 active torsions:
REMARK  status: ('A' for Active; 'I' for Inactive)
REMARK    1  A    between atoms: C_2  and  C_3
REMARK    2  A    between atoms: CA_4  and  C_5
REMARK    3  A    between atoms: C_8  and  C_9
REMARK    4  A    between atoms: C_9  and  O_11
REMARK    5  A    between atoms: O_11  and  C_12
REMARK    6  A    between atoms: C_12  and  C_13
REMARK                            x       y       z     vdW  Elec       q    Type
REMARK                         _______ _______ _______ _____ _____    ______ ____
ROOT
ATOM      1  C   UNL     1      29.277  23.404  24.434  0.00  0.00    +0.000 A 
ATOM      2  CA  UNL     1      28.852  24.402  23.587  0.00  0.00    +0.000 A 
ATOM      3  N   UNL     1      27.721  24.893  24.135  0.00  0.00    +0.000 NA
ATOM      4  C   UNL     1      27.421  24.262  25.272  0.00  0.00    +0.000 A 
ATOM      5  C   UNL     1      28.389  23.316  25.480  0.00  0.00    +0.000 A 
ATOM      6  C   UNL     1      28.472  22.381  26.608  0.00  0.00    +0.000 C 
ENDROOT
BRANCH   1   8
ATOM      7  C   UNL     1      31.752  23.236  24.705  0.00  0.00    +0.000 C 
ATOM      8  C   UNL     1      30.489  22.604  24.187  0.00  0.00    +0.000 C 
ENDBRANCH   1   8
BRANCH   2   9
ATOM      9  C   UNL     1      29.518  24.851  22.340  0.00  0.00    +0.000 C 
ATOM     10  O   UNL     1      29.456  24.132  21.300  0.00  0.00    +0.000 OA
ENDBRANCH   2   9
BRANCH   4  11
ATOM     11  C   UNL     1      26.240  24.522  26.083  0.00  0.00    +0.000 C 
ATOM     12  O   UNL     1      25.190  23.840  25.961  0.00  0.00    +0.000 OA
BRANCH  11  13
ATOM     13  O   UNL     1      26.193  25.534  27.037  0.00  0.00    +0.000 OA
BRANCH  13  14
ATOM     14  C   UNL     1      25.887  25.242  28.344  0.00  0.00    +0.000 C 
BRANCH  14  15
ATOM     15  C   UNL     1      26.779  24.366  29.092  0.00  0.00    +0.000 A 
ATOM     16  C   UNL     1      26.225  23.157  29.523  0.00  0.00    +0.000 A 
ATOM     17  C   UNL     1      26.944  22.250  30.254  0.00  0.00    +0.000 A 
ATOM     18  C   UNL     1      28.271  22.525  30.579  0.00  0.00    +0.000 A 
ATOM     19  C   UNL     1      28.807  23.718  30.152  0.00  0.00    +0.000 A 
ATOM     20  C   UNL     1      28.079  24.617  29.426  0.00  0.00    +0.000 A 
ENDBRANCH  14  15
ENDBRANCH  13  14
ENDBRANCH  11  13
ENDBRANCH   4  11
TORSDOF 6
ENDMDL
MODEL 10
REMARK VINA RESULT:      -5.6     19.999     23.215
REMARK  Name = 
REMARK  6 active torsions:
REMARK  status: ('A' for Active; 'I' for Inactive)
REMARK    1  A    between atoms: C_2  and  C_3
REMARK    2  A    between atoms: CA_4  and  C_5
REMARK    3  A    between atoms: C_8  and  C_9
REMARK    4  A    between atoms: C_9  and  O_11
REMARK    5  A    between atoms: O_11  and  C_12
REMARK    6  A    between atoms: C_12  and  C_13
REMARK                            x       y       z     vdW  Elec       q    Type
REMARK                         _______ _______ _______ _____ _____    ______ ____
ROOT
ATOM      1  C   UNL     1      28.178  27.832  22.981  0.00  0.00    +0.000 A 
ATOM      2  CA  UNL     1      27.184  27.721  22.034  0.00  0.00    +0.000 A 
ATOM      3  N   UNL     1      27.338  26.501  21.481  0.00  0.00    +0.000 NA
ATOM      4  C   UNL     1      28.365  25.846  22.029  0.00  0.00    +0.000 A 
ATOM      5  C   UNL     1      28.911  26.669  22.978  0.00  0.00    +0.000 A 
ATOM      6  C   UNL     1      30.063  26.370  23.837  0.00  0.00    +0.000 C 
ENDROOT
BRANCH   1   8
ATOM      7  C   UNL     1      27.668  28.964  25.145  0.00  0.00    +0.000 C 
ATOM      8  C   UNL     1      28.363  29.033  23.813  0.00  0.00    +0.000 C 
ENDBRANCH   1   8
BRANCH   2   9
ATOM      9  C   UNL     1      26.151  28.734  21.711  0.00  0.00    +0.000 C 
ATOM     10  O   UNL     1      25.621  28.747  20.561  0.00  0.00    +0.000 OA
ENDBRANCH   2   9
BRANCH   4  11
ATOM     11  C   UNL     1      28.822  24.525  21.624  0.00  0.00    +0.000 C 
ATOM     12  O   UNL     1      29.712  24.372  20.748  0.00  0.00    +0.000 OA
BRANCH  11  13
ATOM     13  O   UNL     1      28.310  23.353  22.172  0.00  0.00    +0.000 OA
BRANCH  13  14
ATOM     14  C   UNL     1      27.686  23.373  23.396  0.00  0.00    +0.000 C 
BRANCH  14  15
ATOM     15  C   UNL     1      28.444  22.971  24.573  0.00  0.00    +0.000 A 
ATOM     16  C   UNL     1      29.810  22.748  24.372  0.00  0.00    +0.000 A 
ATOM     17  C   UNL     1      30.635  22.346  25.386  0.00  0.00    +0.000 A 
ATOM     18  C   UNL     1      30.113  22.154  26.664  0.00  0.00    +0.000 A 
ATOM     19  C   UNL     1      28.769  22.374  26.852  0.00  0.00    +0.000 A 
ATOM     20  C   UNL     1      27.953  22.773  25.831  0.00  0.00    +0.000 A 
ENDBRANCH  14  15
ENDBRANCH  13  14
ENDBRANCH  11  13
ENDBRANCH   4  11
TORSDOF 6
ENDMDL
