MODEL 1
REMARK VINA RESULT:      -7.4      0.000      0.000
REMARK  Name = 
REMARK  2 active torsions:
REMARK  status: ('A' for Active; 'I' for Inactive)
REMARK    1  A    between atoms: C_4  and  N_5
REMARK    2  A    between atoms: N_5  and  N_6
REMARK                            x       y       z     vdW  Elec       q    Type
REMARK                         _______ _______ _______ _____ _____    ______ ____
ROOT
ATOM      1  N   UNL     1      17.039   9.941  34.931  0.00  0.00    +0.000 NA
ATOM      2  C   UNL     1      16.275  10.856  34.163  0.00  0.00    +0.000 A 
ATOM      3  N   UNL     1      16.259  10.947  32.856  0.00  0.00    +0.000 NA
ATOM      4  C   UNL     1      15.516  11.830  32.266  0.00  0.00    +0.000 A 
ATOM      5  C   UNL     1      15.406  12.031  30.878  0.00  0.00    +0.000 A 
ATOM      6  C   UNL     1      14.590  12.994  30.398  0.00  0.00    +0.000 A 
ATOM      7  C   UNL     1      13.813  13.839  31.170  0.00  0.00    +0.000 A 
ATOM      8  C   UNL     1      13.913  13.650  32.536  0.00  0.00    +0.000 A 
ATOM      9  C   UNL     1      14.756  12.656  33.047  0.00  0.00    +0.000 A 
ATOM     10  S   UNL     1      15.182  12.082  34.624  0.00  0.00    +0.000 S 
ENDROOT
BRANCH   1  11
ATOM     11  N   UNL     1      16.983   9.928  36.323  0.00  0.00    +0.000 NA
BRANCH  11  15
ATOM     12  C   UNL     1      19.816  11.958  38.771  0.00  0.00    +0.000 C 
ATOM     13  C   UNL     1      19.258  10.521  39.351  0.00  0.00    +0.000 C 
ATOM     14  C   UNL     1      18.097  10.391  38.300  0.00  0.00    +0.000 C 
ATOM     15  C   UNL     1      18.180   9.961  37.125  0.00  0.00    +0.000 C 
ATOM     16  C   UNL     1      19.402   9.482  36.488  0.00  0.00    +0.000 C 
ATOM     17  C   UNL     1      20.558  10.141  37.213  0.00  0.00    +0.000 C 
ATOM     18  C   UNL     1      20.411   9.647  38.604  0.00  0.00    +0.000 C 
ENDBRANCH  11  15
ENDBRANCH   1  11
TORSDOF 2
ENDMDL
MODEL 2
REMARK VINA RESULT:      -7.3      1.419      2.426
REMARK  Name = 
REMARK  2 active torsions:
REMARK  status: ('A' for Active; 'I' for Inactive)
REMARK    1  A    between atoms: C_4  and  N_5
REMARK    2  A    between atoms: N_5  and  N_6
REMARK                            x       y       z     vdW  Elec       q    Type
REMARK                         _______ _______ _______ _____ _____    ______ ____
ROOT
ATOM      1  N   UNL     1      16.134  11.044  36.213  0.00  0.00    +0.000 NA
ATOM      2  C   UNL     1      15.847  11.439  34.881  0.00  0.00    +0.000 A 
ATOM      3  N   UNL     1      14.994  12.363  34.514  0.00  0.00    +0.000 NA
ATOM      4  C   UNL     1      14.817  12.634  33.258  0.00  0.00    +0.000 A 
ATOM      5  C   UNL     1      13.938  13.597  32.732  0.00  0.00    +0.000 A 
ATOM      6  C   UNL     1      13.853  13.775  31.396  0.00  0.00    +0.000 A 
ATOM      7  C   UNL     1      14.580  13.074  30.450  0.00  0.00    +0.000 A 
ATOM      8  C   UNL     1      15.448  12.125  30.957  0.00  0.00    +0.000 A 
ATOM      9  C   UNL     1      15.545  11.930  32.340  0.00  0.00    +0.000 A 
ATOM     10  S   UNL     1      16.459  10.896  33.385  0.00  0.00    +0.000 S 
ENDROOT
BRANCH   1  11
ATOM     11  N   UNL     1      17.064  10.046  36.497  0.00  0.00    +0.000 NA
BRANCH  11  15
ATOM     12  C   UNL     1      18.653   7.585  39.588  0.00  0.00    +0.000 C 
ATOM     13  C   UNL     1      19.447   9.001  39.311  0.00  0.00    +0.000 C 
ATOM     14  C   UNL     1      18.699   9.317  37.967  0.00  0.00    +0.000 C 
ATOM     15  C   UNL     1      17.569   9.846  37.831  0.00  0.00    +0.000 C 
ATOM     16  C   UNL     1      16.710  10.287  38.925  0.00  0.00    +0.000 C 
ATOM     17  C   UNL     1      17.104   9.475  40.143  0.00  0.00    +0.000 C 
ATOM     18  C   UNL     1      18.525   9.848  40.352  0.00  0.00    +0.000 C 
ENDBRANCH  11  15
ENDBRANCH   1  11
TORSDOF 2
ENDMDL
MODEL 3
REMARK VINA RESULT:      -6.8      2.652      3.734
REMARK  Name = 
REMARK  2 active torsions:
REMARK  status: ('A' for Active; 'I' for Inactive)
REMARK    1  A    between atoms: C_4  and  N_5
REMARK    2  A    between atoms: N_5  and  N_6
REMARK                            x       y       z     vdW  Elec       q    Type
REMARK                         _______ _______ _______ _____ _____    ______ ____
ROOT
ATOM      1  N   UNL     1      18.600   9.673  37.678  0.00  0.00    +0.000 NA
ATOM      2  C   UNL     1      17.772  10.214  36.662  0.00  0.00    +0.000 A 
ATOM      3  N   UNL     1      17.853   9.962  35.379  0.00  0.00    +0.000 NA
ATOM      4  C   UNL     1      17.034  10.523  34.545  0.00  0.00    +0.000 A 
ATOM      5  C   UNL     1      17.014  10.339  33.150  0.00  0.00    +0.000 A 
ATOM      6  C   UNL     1      16.101  10.990  32.397  0.00  0.00    +0.000 A 
ATOM      7  C   UNL     1      15.138  11.857  32.883  0.00  0.00    +0.000 A 
ATOM      8  C   UNL     1      15.149  12.043  34.253  0.00  0.00    +0.000 A 
ATOM      9  C   UNL     1      16.091  11.376  35.045  0.00  0.00    +0.000 A 
ATOM     10  S   UNL     1      16.465  11.307  36.734  0.00  0.00    +0.000 S 
ENDROOT
BRANCH   1  11
ATOM     11  N   UNL     1      18.429  10.007  39.019  0.00  0.00    +0.000 NA
BRANCH  11  15
ATOM     12  C   UNL     1      16.377   9.311  42.686  0.00  0.00    +0.000 C 
ATOM     13  C   UNL     1      15.569   8.889  41.315  0.00  0.00    +0.000 C 
ATOM     14  C   UNL     1      16.568   9.612  40.340  0.00  0.00    +0.000 C 
ATOM     15  C   UNL     1      17.662   9.174  39.910  0.00  0.00    +0.000 C 
ATOM     16  C   UNL     1      18.234   7.872  40.237  0.00  0.00    +0.000 C 
ATOM     17  C   UNL     1      17.642   7.457  41.569  0.00  0.00    +0.000 C 
ATOM     18  C   UNL     1      16.188   7.383  41.283  0.00  0.00    +0.000 C 
ENDBRANCH  11  15
ENDBRANCH   1  11
TORSDOF 2
ENDMDL
MODEL 4
REMARK VINA RESULT:      -6.6      2.905      4.134
REMARK  Name = 
REMARK  2 active torsions:
REMARK  status: ('A' for Active; 'I' for Inactive)
REMARK    1  A    between atoms: C_4  and  N_5
REMARK    2  A    between atoms: N_5  and  N_6
REMARK                            x       y       z     vdW  Elec       q    Type
REMARK                         _______ _______ _______ _____ _____    ______ ____
ROOT
ATOM      1  N   UNL     1      17.812   9.673  38.116  0.00  0.00    +0.000 NA
ATOM      2  C   UNL     1      17.205  10.222  36.958  0.00  0.00    +0.000 A 
ATOM      3  N   UNL     1      17.452   9.879  35.718  0.00  0.00    +0.000 NA
ATOM      4  C   UNL     1      16.830  10.458  34.739  0.00  0.00    +0.000 A 
ATOM      5  C   UNL     1      16.999  10.186  33.369  0.00  0.00    +0.000 A 
ATOM      6  C   UNL     1      16.282  10.868  32.451  0.00  0.00    +0.000 A 
ATOM      7  C   UNL     1      15.353  11.853  32.736  0.00  0.00    +0.000 A 
ATOM      8  C   UNL     1      15.177  12.128  34.080  0.00  0.00    +0.000 A 
ATOM      9  C   UNL     1      15.916  11.428  35.042  0.00  0.00    +0.000 A 
ATOM     10  S   UNL     1      16.023  11.436  36.770  0.00  0.00    +0.000 S 
ENDROOT
BRANCH   1  11
ATOM     11  N   UNL     1      17.477  10.110  39.396  0.00  0.00    +0.000 NA
BRANCH  11  15
ATOM     12  C   UNL     1      17.164   6.164  40.966  0.00  0.00    +0.000 C 
ATOM     13  C   UNL     1      17.893   7.272  41.940  0.00  0.00    +0.000 C 
ATOM     14  C   UNL     1      18.025   8.369  40.823  0.00  0.00    +0.000 C 
ATOM     15  C   UNL     1      17.145   9.180  40.446  0.00  0.00    +0.000 C 
ATOM     16  C   UNL     1      15.793   9.268  40.987  0.00  0.00    +0.000 C 
ATOM     17  C   UNL     1      15.471   7.908  41.574  0.00  0.00    +0.000 C 
ATOM     18  C   UNL     1      16.497   7.744  42.633  0.00  0.00    +0.000 C 
ENDBRANCH  11  15
ENDBRANCH   1  11
TORSDOF 2
ENDMDL
MODEL 5
REMARK VINA RESULT:      -6.2      2.727      4.346
REMARK  Name = 
REMARK  2 active torsions:
REMARK  status: ('A' for Active; 'I' for Inactive)
REMARK    1  A    between atoms: C_4  and  N_5
REMARK    2  A    between atoms: N_5  and  N_6
REMARK                            x       y       z     vdW  Elec       q    Type
REMARK                         _______ _______ _______ _____ _____    ______ ____
ROOT
ATOM      1  N   UNL     1      19.558  10.548  38.082  0.00  0.00    +0.000 NA
ATOM      2  C   UNL     1      18.629  10.637  37.014  0.00  0.00    +0.000 A 
ATOM      3  N   UNL     1      17.582  11.422  36.961  0.00  0.00    +0.000 NA
ATOM      4  C   UNL     1      16.804  11.410  35.924  0.00  0.00    +0.000 A 
ATOM      5  C   UNL     1      15.653  12.200  35.740  0.00  0.00    +0.000 A 
ATOM      6  C   UNL     1      14.931  12.085  34.606  0.00  0.00    +0.000 A 
ATOM      7  C   UNL     1      15.223  11.231  33.556  0.00  0.00    +0.000 A 
ATOM      8  C   UNL     1      16.353  10.452  33.727  0.00  0.00    +0.000 A 
ATOM      9  C   UNL     1      17.110  10.560  34.899  0.00  0.00    +0.000 A 
ATOM     10  S   UNL     1      18.543   9.815  35.522  0.00  0.00    +0.000 S 
ENDROOT
BRANCH   1  11
ATOM     11  N   UNL     1      20.643   9.676  38.040  0.00  0.00    +0.000 NA
BRANCH  11  15
ATOM     12  C   UNL     1      24.834   9.154  37.489  0.00  0.00    +0.000 C 
ATOM     13  C   UNL     1      23.964   9.488  36.133  0.00  0.00    +0.000 C 
ATOM     14  C   UNL     1      22.564   9.267  36.811  0.00  0.00    +0.000 C 
ATOM     15  C   UNL     1      21.918  10.086  37.508  0.00  0.00    +0.000 C 
ATOM     16  C   UNL     1      22.351  11.442  37.830  0.00  0.00    +0.000 C 
ATOM     17  C   UNL     1      23.863  11.452  37.726  0.00  0.00    +0.000 C 
ATOM     18  C   UNL     1      24.107  11.100  36.305  0.00  0.00    +0.000 C 
ENDBRANCH  11  15
ENDBRANCH   1  11
TORSDOF 2
ENDMDL
MODEL 6
REMARK VINA RESULT:      -5.8     21.838     23.074
REMARK  Name = 
REMARK  2 active torsions:
REMARK  status: ('A' for Active; 'I' for Inactive)
REMARK    1  A    between atoms: C_4  and  N_5
REMARK    2  A    between atoms: N_5  and  N_6
REMARK                            x       y       z     vdW  Elec       q    Type
REMARK                         _______ _______ _______ _____ _____    ______ ____
ROOT
ATOM      1  N   UNL     1      23.370  -7.686  24.292  0.00  0.00    +0.000 NA
ATOM      2  C   UNL     1      22.132  -7.551  24.969  0.00  0.00    +0.000 A 
ATOM      3  N   UNL     1      21.460  -6.440  25.141  0.00  0.00    +0.000 NA
ATOM      4  C   UNL     1      20.333  -6.445  25.783  0.00  0.00    +0.000 A 
ATOM      5  C   UNL     1      19.516  -5.328  26.036  0.00  0.00    +0.000 A 
ATOM      6  C   UNL     1      18.362  -5.477  26.721  0.00  0.00    +0.000 A 
ATOM      7  C   UNL     1      17.880  -6.675  27.220  0.00  0.00    +0.000 A 
ATOM      8  C   UNL     1      18.675  -7.779  26.975  0.00  0.00    +0.000 A 
ATOM      9  C   UNL     1      19.874  -7.638  26.268  0.00  0.00    +0.000 A 
ATOM     10  S   UNL     1      21.140  -8.699  25.749  0.00  0.00    +0.000 S 
ENDROOT
BRANCH   1  11
ATOM     11  N   UNL     1      24.005  -8.920  24.163  0.00  0.00    +0.000 NA
BRANCH  11  15
ATOM     12  C   UNL     1      27.032  -9.070  21.171  0.00  0.00    +0.000 C 
ATOM     13  C   UNL     1      27.300  -8.029  22.418  0.00  0.00    +0.000 C 
ATOM     14  C   UNL     1      25.842  -8.129  22.994  0.00  0.00    +0.000 C 
ATOM     15  C   UNL     1      25.381  -9.019  23.749  0.00  0.00    +0.000 C 
ATOM     16  C   UNL     1      26.131 -10.164  24.255  0.00  0.00    +0.000 C 
ATOM     17  C   UNL     1      27.263 -10.410  23.277  0.00  0.00    +0.000 C 
ATOM     18  C   UNL     1      28.042  -9.148  23.338  0.00  0.00    +0.000 C 
ENDBRANCH  11  15
ENDBRANCH   1  11
TORSDOF 2
ENDMDL
MODEL 7
REMARK VINA RESULT:      -5.7     17.673     18.821
REMARK  Name = 
REMARK  2 active torsions:
REMARK  status: ('A' for Active; 'I' for Inactive)
REMARK    1  A    between atoms: C_4  and  N_5
REMARK    2  A    between atoms: N_5  and  N_6
REMARK                            x       y       z     vdW  Elec       q    Type
REMARK                         _______ _______ _______ _____ _____    ______ ____
ROOT
ATOM      1  N   UNL     1      26.110  23.478  25.808  0.00  0.00    +0.000 NA
ATOM      2  C   UNL     1      25.865  24.019  27.096  0.00  0.00    +0.000 A 
ATOM      3  N   UNL     1      25.033  24.989  27.383  0.00  0.00    +0.000 NA
ATOM      4  C   UNL     1      24.897  25.399  28.606  0.00  0.00    +0.000 A 
ATOM      5  C   UNL     1      24.043  26.425  29.048  0.00  0.00    +0.000 A 
ATOM      6  C   UNL     1      24.001  26.751  30.358  0.00  0.00    +0.000 A 
ATOM      7  C   UNL     1      24.747  26.146  31.355  0.00  0.00    +0.000 A 
ATOM      8  C   UNL     1      25.589  25.135  30.930  0.00  0.00    +0.000 A 
ATOM      9  C   UNL     1      25.643  24.789  29.575  0.00  0.00    +0.000 A 
ATOM     10  S   UNL     1      26.514  23.633  28.624  0.00  0.00    +0.000 S 
ENDROOT
BRANCH   1  11
ATOM     11  N   UNL     1      27.019  22.442  25.609  0.00  0.00    +0.000 NA
BRANCH  11  15
ATOM     12  C   UNL     1      30.730  24.355  26.452  0.00  0.00    +0.000 C 
ATOM     13  C   UNL     1      30.799  22.733  26.181  0.00  0.00    +0.000 C 
ATOM     14  C   UNL     1      29.244  22.517  26.249  0.00  0.00    +0.000 C 
ATOM     15  C   UNL     1      28.409  22.702  25.331  0.00  0.00    +0.000 C 
ATOM     16  C   UNL     1      28.728  23.164  23.985  0.00  0.00    +0.000 C 
ATOM     17  C   UNL     1      30.034  23.925  24.083  0.00  0.00    +0.000 C 
ATOM     18  C   UNL     1      30.988  22.899  24.572  0.00  0.00    +0.000 C 
ENDBRANCH  11  15
ENDBRANCH   1  11
TORSDOF 2
ENDMDL
MODEL 8
REMARK VINA RESULT:      -5.7     22.847     25.233
REMARK  Name = 
REMARK  2 active torsions:
REMARK  status: ('A' for Active; 'I' for Inactive)
REMARK    1  A    between atoms: C_4  and  N_5
REMARK    2  A    between atoms: N_5  and  N_6
REMARK                            x       y       z     vdW  Elec       q    Type
REMARK                         _______ _______ _______ _____ _____    ______ ____
ROOT
ATOM      1  N   UNL     1      29.932  26.368  19.941  0.00  0.00    +0.000 NA
ATOM      2  C   UNL     1      29.262  25.848  21.077  0.00  0.00    +0.000 A 
ATOM      3  N   UNL     1      29.508  24.704  21.666  0.00  0.00    +0.000 NA
ATOM      4  C   UNL     1      28.822  24.336  22.703  0.00  0.00    +0.000 A 
ATOM      5  C   UNL     1      28.985  23.140  23.425  0.00  0.00    +0.000 A 
ATOM      6  C   UNL     1      28.197  22.883  24.491  0.00  0.00    +0.000 A 
ATOM      7  C   UNL     1      27.203  23.719  24.968  0.00  0.00    +0.000 A 
ATOM      8  C   UNL     1      27.036  24.898  24.266  0.00  0.00    +0.000 A 
ATOM      9  C   UNL     1      27.845  25.176  23.158  0.00  0.00    +0.000 A 
ATOM     10  S   UNL     1      27.988  26.475  22.022  0.00  0.00    +0.000 S 
ENDROOT
BRANCH   1  11
ATOM     11  N   UNL     1      29.592  27.602  19.390  0.00  0.00    +0.000 NA
BRANCH  11  15
ATOM     12  C   UNL     1      29.128  26.883  15.218  0.00  0.00    +0.000 C 
ATOM     13  C   UNL     1      28.932  28.443  15.709  0.00  0.00    +0.000 C 
ATOM     14  C   UNL     1      28.885  28.099  17.241  0.00  0.00    +0.000 C 
ATOM     15  C   UNL     1      29.860  27.909  18.008  0.00  0.00    +0.000 C 
ATOM     16  C   UNL     1      31.264  27.976  17.618  0.00  0.00    +0.000 C 
ATOM     17  C   UNL     1      31.315  27.699  16.128  0.00  0.00    +0.000 C 
ATOM     18  C   UNL     1      30.512  28.805  15.551  0.00  0.00    +0.000 C 
ENDBRANCH  11  15
ENDBRANCH   1  11
TORSDOF 2
ENDMDL
MODEL 9
REMARK VINA RESULT:      -5.7     20.083     21.618
REMARK  Name = 
REMARK  2 active torsions:
REMARK  status: ('A' for Active; 'I' for Inactive)
REMARK    1  A    between atoms: C_4  and  N_5
REMARK    2  A    between atoms: N_5  and  N_6
REMARK                            x       y       z     vdW  Elec       q    Type
REMARK                         _______ _______ _______ _____ _____    ______ ____
ROOT
ATOM      1  N   UNL     1      23.683   3.149  16.112  0.00  0.00    +0.000 NA
ATOM      2  C   UNL     1      24.646   3.924  16.808  0.00  0.00    +0.000 A 
ATOM      3  N   UNL     1      25.262   4.986  16.352  0.00  0.00    +0.000 NA
ATOM      4  C   UNL     1      26.128   5.610  17.087  0.00  0.00    +0.000 A 
ATOM      5  C   UNL     1      26.856   6.758  16.721  0.00  0.00    +0.000 A 
ATOM      6  C   UNL     1      27.731   7.308  17.590  0.00  0.00    +0.000 A 
ATOM      7  C   UNL     1      27.993   6.836  18.864  0.00  0.00    +0.000 A 
ATOM      8  C   UNL     1      27.282   5.710  19.234  0.00  0.00    +0.000 A 
ATOM      9  C   UNL     1      26.373   5.128  18.342  0.00  0.00    +0.000 A 
ATOM     10  S   UNL     1      25.305   3.766  18.373  0.00  0.00    +0.000 S 
ENDROOT
BRANCH   1  11
ATOM     11  N   UNL     1      23.084   2.032  16.691  0.00  0.00    +0.000 NA
BRANCH  11  15
ATOM     12  C   UNL     1      19.289   2.800  14.917  0.00  0.00    +0.000 C 
ATOM     13  C   UNL     1      19.770   1.226  14.941  0.00  0.00    +0.000 C 
ATOM     14  C   UNL     1      21.249   1.541  15.364  0.00  0.00    +0.000 C 
ATOM     15  C   UNL     1      21.679   1.760  16.522  0.00  0.00    +0.000 C 
ATOM     16  C   UNL     1      20.867   1.759  17.735  0.00  0.00    +0.000 C 
ATOM     17  C   UNL     1      19.445   2.063  17.307  0.00  0.00    +0.000 C 
ATOM     18  C   UNL     1      19.116   0.933  16.403  0.00  0.00    +0.000 C 
ENDBRANCH  11  15
ENDBRANCH   1  11
TORSDOF 2
ENDMDL
MODEL 10
REMARK VINA RESULT:      -5.6     18.340     19.386
REMARK  Name = 
REMARK  2 active torsions:
REMARK  status: ('A' for Active; 'I' for Inactive)
REMARK    1  A    between atoms: C_4  and  N_5
REMARK    2  A    between atoms: N_5  and  N_6
REMARK                            x       y       z     vdW  Elec       q    Type
REMARK                         _______ _______ _______ _____ _____    ______ ____
ROOT
ATOM      1  N   UNL     1      25.525  25.233  26.045  0.00  0.00    +0.000 NA
ATOM      2  C   UNL     1      26.396  25.126  24.931  0.00  0.00    +0.000 A 
ATOM      3  N   UNL     1      26.688  26.079  24.081  0.00  0.00    +0.000 NA
ATOM      4  C   UNL     1      27.502  25.856  23.097  0.00  0.00    +0.000 A 
ATOM      5  C   UNL     1      27.898  26.786  22.118  0.00  0.00    +0.000 A 
ATOM      6  C   UNL     1      28.757  26.417  21.144  0.00  0.00    +0.000 A 
ATOM      7  C   UNL     1      29.314  25.158  21.007  0.00  0.00    +0.000 A 
ATOM      8  C   UNL     1      28.933  24.236  21.965  0.00  0.00    +0.000 A 
ATOM      9  C   UNL     1      28.042  24.606  22.979  0.00  0.00    +0.000 A 
ATOM     10  S   UNL     1      27.313  23.816  24.337  0.00  0.00    +0.000 S 
ENDROOT
BRANCH   1  11
ATOM     11  N   UNL     1      25.282  24.155  26.892  0.00  0.00    +0.000 NA
BRANCH  11  15
ATOM     12  C   UNL     1      26.458  21.897  30.307  0.00  0.00    +0.000 C 
ATOM     13  C   UNL     1      27.657  22.725  29.541  0.00  0.00    +0.000 C 
ATOM     14  C   UNL     1      26.794  23.074  28.275  0.00  0.00    +0.000 C 
ATOM     15  C   UNL     1      25.973  24.014  28.149  0.00  0.00    +0.000 C 
ATOM     16  C   UNL     1      25.653  24.995  29.180  0.00  0.00    +0.000 C 
ATOM     17  C   UNL     1      25.974  24.348  30.512  0.00  0.00    +0.000 C 
ATOM     18  C   UNL     1      27.430  24.080  30.416  0.00  0.00    +0.000 C 
ENDBRANCH  11  15
ENDBRANCH   1  11
TORSDOF 2
ENDMDL
