MODEL 1
REMARK VINA RESULT:      -8.9      0.000      0.000
REMARK  Name = 
REMARK  7 active torsions:
REMARK  status: ('A' for Active; 'I' for Inactive)
REMARK    1  A    between atoms: O_2  and  C_3
REMARK    2  A    between atoms: C_6  and  C_7
REMARK    3  A    between atoms: C_12  and  N_13
REMARK    4  A    between atoms: C_14  and  C_16
REMARK    5  A    between atoms: C_16  and  O_17
REMARK    6  A    between atoms: O_17  and  C_18
REMARK    7  A    between atoms: C_18  and  C_20
REMARK                            x       y       z     vdW  Elec       q    Type
REMARK                         _______ _______ _______ _____ _____    ______ ____
ROOT
ATOM      1  O   UNL     1      38.713   2.958  15.588  0.00  0.00    +0.000 OA
ENDROOT
BRANCH   1   2
ATOM      2  C   UNL     1      38.183   1.946  14.791  0.00  0.00    +0.000 C 
ATOM      3  O   UNL     1      37.771   2.243  13.657  0.00  0.00    +0.000 OA
BRANCH   2   4
ATOM      4  C   UNL     1      38.102   0.567  15.244  0.00  0.00    +0.000 A 
ATOM      5  C   UNL     1      39.122  -0.347  15.044  0.00  0.00    +0.000 A 
ATOM      6  C   UNL     1      40.280   0.054  14.400  0.00  0.00    +0.000 A 
ATOM      7  C   UNL     1      41.303  -0.847  14.201  0.00  0.00    +0.000 A 
ATOM      8  C   UNL     1      41.219  -2.149  14.625  0.00  0.00    +0.000 A 
ATOM      9  C   UNL     1      40.087  -2.571  15.264  0.00  0.00    +0.000 A 
ATOM     10  C   UNL     1      39.059  -1.665  15.462  0.00  0.00    +0.000 A 
ATOM     11  C   UNL     1      37.910  -2.073  16.111  0.00  0.00    +0.000 A 
ATOM     12  C   UNL     1      36.876  -1.207  16.331  0.00  0.00    +0.000 A 
ATOM     13  C   UNL     1      35.751  -1.672  16.981  0.00  0.00    +0.000 A 
ATOM     14  C   UNL     1      34.739  -0.775  17.177  0.00  0.00    +0.000 A 
ATOM     15  C   UNL     1      34.796   0.532  16.764  0.00  0.00    +0.000 A 
ATOM     16  C   UNL     1      35.925   0.995  16.114  0.00  0.00    +0.000 A 
ATOM     17  C   UNL     1      36.978   0.104  15.898  0.00  0.00    +0.000 A 
ENDBRANCH   2   4
ENDBRANCH   1   2
BRANCH   1  18
ATOM     18  C   UNL     1      38.056   4.100  16.018  0.00  0.00    +0.000 C 
BRANCH  18  20
ATOM     19  N   UNL     1      39.128   6.081  17.152  0.00  0.00    +0.000 NA
ATOM     20  C   UNL     1      38.588   4.767  17.196  0.00  0.00    +0.000 C 
ATOM     21  O   UNL     1      38.584   4.188  18.302  0.00  0.00    +0.000 OA
BRANCH  19  27
ATOM     22  C   UNL     1      38.807   7.474  19.103  0.00  0.00    +0.000 A 
ATOM     23  C   UNL     1      39.324   8.088  20.252  0.00  0.00    +0.000 A 
ATOM     24  C   UNL     1      40.644   7.909  20.581  0.00  0.00    +0.000 A 
ATOM     25  C   UNL     1      41.507   7.130  19.810  0.00  0.00    +0.000 A 
ATOM     26  C   UNL     1      40.973   6.548  18.698  0.00  0.00    +0.000 A 
ATOM     27  C   UNL     1      39.646   6.707  18.336  0.00  0.00    +0.000 A 
BRANCH  25  28
ATOM     28  C   UNL     1      42.917   6.978  20.216  0.00  0.00    +0.000 C 
ATOM     29  C   UNL     1      43.850   6.816  19.041  0.00  0.00    +0.000 C 
ATOM     30  C   UNL     1      43.110   5.765  21.118  0.00  0.00    +0.000 C 
ATOM     31  C   UNL     1      43.429   8.182  21.001  0.00  0.00    +0.000 C 
ENDBRANCH  25  28
BRANCH  22  33
ATOM     32  C   UNL     1      36.716   8.763  19.154  0.00  0.00    +0.000 C 
ATOM     33  O   UNL     1      37.463   7.649  18.760  0.00  0.00    +0.000 OA
ENDBRANCH  22  33
ENDBRANCH  19  27
ENDBRANCH  18  20
ENDBRANCH   1  18
TORSDOF 7
ENDMDL
MODEL 2
REMARK VINA RESULT:      -8.9      0.100      3.094
REMARK  Name = 
REMARK  7 active torsions:
REMARK  status: ('A' for Active; 'I' for Inactive)
REMARK    1  A    between atoms: O_2  and  C_3
REMARK    2  A    between atoms: C_6  and  C_7
REMARK    3  A    between atoms: C_12  and  N_13
REMARK    4  A    between atoms: C_14  and  C_16
REMARK    5  A    between atoms: C_16  and  O_17
REMARK    6  A    between atoms: O_17  and  C_18
REMARK    7  A    between atoms: C_18  and  C_20
REMARK                            x       y       z     vdW  Elec       q    Type
REMARK                         _______ _______ _______ _____ _____    ______ ____
ROOT
ATOM      1  O   UNL     1      38.783   3.019  15.501  0.00  0.00    +0.000 OA
ENDROOT
BRANCH   1   2
ATOM      2  C   UNL     1      38.286   1.996  14.697  0.00  0.00    +0.000 C 
ATOM      3  O   UNL     1      37.923   2.276  13.542  0.00  0.00    +0.000 OA
BRANCH   2   4
ATOM      4  C   UNL     1      38.182   0.624  15.167  0.00  0.00    +0.000 A 
ATOM      5  C   UNL     1      37.066   0.142  15.827  0.00  0.00    +0.000 A 
ATOM      6  C   UNL     1      35.988   0.982  16.047  0.00  0.00    +0.000 A 
ATOM      7  C   UNL     1      34.870   0.511  16.698  0.00  0.00    +0.000 A 
ATOM      8  C   UNL     1      34.780  -0.784  17.146  0.00  0.00    +0.000 A 
ATOM      9  C   UNL     1      35.829  -1.634  16.942  0.00  0.00    +0.000 A 
ATOM     10  C   UNL     1      36.953  -1.159  16.288  0.00  0.00    +0.000 A 
ATOM     11  C   UNL     1      38.021  -2.007  16.069  0.00  0.00    +0.000 A 
ATOM     12  C   UNL     1      39.145  -1.577  15.422  0.00  0.00    +0.000 A 
ATOM     13  C   UNL     1      40.183  -2.467  15.235  0.00  0.00    +0.000 A 
ATOM     14  C   UNL     1      41.290  -1.995  14.587  0.00  0.00    +0.000 A 
ATOM     15  C   UNL     1      41.407  -0.707  14.129  0.00  0.00    +0.000 A 
ATOM     16  C   UNL     1      40.365   0.182  14.318  0.00  0.00    +0.000 A 
ATOM     17  C   UNL     1      39.219  -0.267  14.976  0.00  0.00    +0.000 A 
ENDBRANCH   2   4
ENDBRANCH   1   2
BRANCH   1  18
ATOM     18  C   UNL     1      38.071   4.103  15.991  0.00  0.00    +0.000 C 
BRANCH  18  20
ATOM     19  N   UNL     1      39.139   6.079  17.139  0.00  0.00    +0.000 NA
ATOM     20  C   UNL     1      38.602   4.764  17.174  0.00  0.00    +0.000 C 
ATOM     21  O   UNL     1      38.598   4.178  18.276  0.00  0.00    +0.000 OA
BRANCH  19  27
ATOM     22  C   UNL     1      38.812   7.453  19.102  0.00  0.00    +0.000 A 
ATOM     23  C   UNL     1      39.328   8.061  20.255  0.00  0.00    +0.000 A 
ATOM     24  C   UNL     1      40.650   7.888  20.580  0.00  0.00    +0.000 A 
ATOM     25  C   UNL     1      41.517   7.122  19.800  0.00  0.00    +0.000 A 
ATOM     26  C   UNL     1      40.984   6.545  18.684  0.00  0.00    +0.000 A 
ATOM     27  C   UNL     1      39.655   6.699  18.327  0.00  0.00    +0.000 A 
BRANCH  25  28
ATOM     28  C   UNL     1      42.929   6.976  20.202  0.00  0.00    +0.000 C 
ATOM     29  C   UNL     1      43.855   6.790  19.025  0.00  0.00    +0.000 C 
ATOM     30  C   UNL     1      43.124   5.781  21.126  0.00  0.00    +0.000 C 
ATOM     31  C   UNL     1      43.446   8.195  20.961  0.00  0.00    +0.000 C 
ENDBRANCH  25  28
BRANCH  22  33
ATOM     32  C   UNL     1      36.737   8.768  19.092  0.00  0.00    +0.000 C 
ATOM     33  O   UNL     1      37.467   7.622  18.763  0.00  0.00    +0.000 OA
ENDBRANCH  22  33
ENDBRANCH  19  27
ENDBRANCH  18  20
ENDBRANCH   1  18
TORSDOF 7
ENDMDL
MODEL 3
REMARK VINA RESULT:      -8.7      2.816      7.943
REMARK  Name = 
REMARK  7 active torsions:
REMARK  status: ('A' for Active; 'I' for Inactive)
REMARK    1  A    between atoms: O_2  and  C_3
REMARK    2  A    between atoms: C_6  and  C_7
REMARK    3  A    between atoms: C_12  and  N_13
REMARK    4  A    between atoms: C_14  and  C_16
REMARK    5  A    between atoms: C_16  and  O_17
REMARK    6  A    between atoms: O_17  and  C_18
REMARK    7  A    between atoms: C_18  and  C_20
REMARK                            x       y       z     vdW  Elec       q    Type
REMARK                         _______ _______ _______ _____ _____    ______ ____
ROOT
ATOM      1  O   UNL     1      39.895   3.722  13.031  0.00  0.00    +0.000 OA
ENDROOT
BRANCH   1   2
ATOM      2  C   UNL     1      38.820   4.415  13.585  0.00  0.00    +0.000 C 
ATOM      3  O   UNL     1      38.233   5.253  12.881  0.00  0.00    +0.000 OA
BRANCH   2   4
ATOM      4  C   UNL     1      38.372   4.184  14.948  0.00  0.00    +0.000 A 
ATOM      5  C   UNL     1      38.971   4.782  16.043  0.00  0.00    +0.000 A 
ATOM      6  C   UNL     1      40.034   5.647  15.851  0.00  0.00    +0.000 A 
ATOM      7  C   UNL     1      40.633   6.251  16.934  0.00  0.00    +0.000 A 
ATOM      8  C   UNL     1      40.210   6.025  18.220  0.00  0.00    +0.000 A 
ATOM      9  C   UNL     1      39.163   5.175  18.438  0.00  0.00    +0.000 A 
ATOM     10  C   UNL     1      38.562   4.568  17.349  0.00  0.00    +0.000 A 
ATOM     11  C   UNL     1      37.499   3.710  17.551  0.00  0.00    +0.000 A 
ATOM     12  C   UNL     1      36.875   3.096  16.501  0.00  0.00    +0.000 A 
ATOM     13  C   UNL     1      35.820   2.245  16.763  0.00  0.00    +0.000 A 
ATOM     14  C   UNL     1      35.229   1.649  15.686  0.00  0.00    +0.000 A 
ATOM     15  C   UNL     1      35.630   1.857  14.390  0.00  0.00    +0.000 A 
ATOM     16  C   UNL     1      36.686   2.710  14.131  0.00  0.00    +0.000 A 
ATOM     17  C   UNL     1      37.314   3.336  15.209  0.00  0.00    +0.000 A 
ENDBRANCH   2   4
ENDBRANCH   1   2
BRANCH   1  18
ATOM     18  C   UNL     1      39.822   2.630  12.181  0.00  0.00    +0.000 C 
BRANCH  18  20
ATOM     19  N   UNL     1      39.981   1.032  14.127  0.00  0.00    +0.000 NA
ATOM     20  C   UNL     1      39.591   1.330  12.792  0.00  0.00    +0.000 C 
ATOM     21  O   UNL     1      39.031   0.421  12.145  0.00  0.00    +0.000 OA
BRANCH  19  27
ATOM     22  C   UNL     1      40.712  -1.224  14.603  0.00  0.00    +0.000 A 
ATOM     23  C   UNL     1      40.461  -2.488  15.154  0.00  0.00    +0.000 A 
ATOM     24  C   UNL     1      39.259  -2.734  15.768  0.00  0.00    +0.000 A 
ATOM     25  C   UNL     1      38.260  -1.765  15.870  0.00  0.00    +0.000 A 
ATOM     26  C   UNL     1      38.535  -0.546  15.322  0.00  0.00    +0.000 A 
ATOM     27  C   UNL     1      39.737  -0.264  14.696  0.00  0.00    +0.000 A 
BRANCH  25  28
ATOM     28  C   UNL     1      36.987  -2.093  16.540  0.00  0.00    +0.000 C 
ATOM     29  C   UNL     1      35.789  -1.918  15.639  0.00  0.00    +0.000 C 
ATOM     30  C   UNL     1      36.763  -1.217  17.767  0.00  0.00    +0.000 C 
ATOM     31  C   UNL     1      36.943  -3.537  17.030  0.00  0.00    +0.000 C 
ENDBRANCH  25  28
BRANCH  22  33
ATOM     32  C   UNL     1      42.265  -1.463  12.715  0.00  0.00    +0.000 C 
ATOM     33  O   UNL     1      41.934  -0.962  13.977  0.00  0.00    +0.000 OA
ENDBRANCH  22  33
ENDBRANCH  19  27
ENDBRANCH  18  20
ENDBRANCH   1  18
TORSDOF 7
ENDMDL
MODEL 4
REMARK VINA RESULT:      -8.7      2.818      8.234
REMARK  Name = 
REMARK  7 active torsions:
REMARK  status: ('A' for Active; 'I' for Inactive)
REMARK    1  A    between atoms: O_2  and  C_3
REMARK    2  A    between atoms: C_6  and  C_7
REMARK    3  A    between atoms: C_12  and  N_13
REMARK    4  A    between atoms: C_14  and  C_16
REMARK    5  A    between atoms: C_16  and  O_17
REMARK    6  A    between atoms: O_17  and  C_18
REMARK    7  A    between atoms: C_18  and  C_20
REMARK                            x       y       z     vdW  Elec       q    Type
REMARK                         _______ _______ _______ _____ _____    ______ ____
ROOT
ATOM      1  O   UNL     1      40.036   3.613  13.150  0.00  0.00    +0.000 OA
ENDROOT
BRANCH   1   2
ATOM      2  C   UNL     1      38.964   4.350  13.648  0.00  0.00    +0.000 C 
ATOM      3  O   UNL     1      38.441   5.203  12.911  0.00  0.00    +0.000 OA
BRANCH   2   4
ATOM      4  C   UNL     1      38.445   4.150  14.991  0.00  0.00    +0.000 A 
ATOM      5  C   UNL     1      37.373   3.317  15.262  0.00  0.00    +0.000 A 
ATOM      6  C   UNL     1      36.765   2.629  14.226  0.00  0.00    +0.000 A 
ATOM      7  C   UNL     1      35.702   1.794  14.486  0.00  0.00    +0.000 A 
ATOM      8  C   UNL     1      35.211   1.613  15.755  0.00  0.00    +0.000 A 
ATOM      9  C   UNL     1      35.792   2.280  16.796  0.00  0.00    +0.000 A 
ATOM     10  C   UNL     1      36.861   3.120  16.533  0.00  0.00    +0.000 A 
ATOM     11  C   UNL     1      37.463   3.799  17.574  0.00  0.00    +0.000 A 
ATOM     12  C   UNL     1      38.525   4.632  17.357  0.00  0.00    +0.000 A 
ATOM     13  C   UNL     1      39.084   5.287  18.435  0.00  0.00    +0.000 A 
ATOM     14  C   UNL     1      40.140   6.114  18.172  0.00  0.00    +0.000 A 
ATOM     15  C   UNL     1      40.651   6.312  16.914  0.00  0.00    +0.000 A 
ATOM     16  C   UNL     1      40.088   5.654  15.836  0.00  0.00    +0.000 A 
ATOM     17  C   UNL     1      39.008   4.802  16.070  0.00  0.00    +0.000 A 
ENDBRANCH   2   4
ENDBRANCH   1   2
BRANCH   1  18
ATOM     18  C   UNL     1      39.964   2.533  12.284  0.00  0.00    +0.000 C 
BRANCH  18  20
ATOM     19  N   UNL     1      40.036   0.909  14.214  0.00  0.00    +0.000 NA
ATOM     20  C   UNL     1      39.691   1.230  12.872  0.00  0.00    +0.000 C 
ATOM     21  O   UNL     1      39.134   0.340  12.197  0.00  0.00    +0.000 OA
BRANCH  19  27
ATOM     22  C   UNL     1      40.708  -1.367  14.675  0.00  0.00    +0.000 A 
ATOM     23  C   UNL     1      40.419  -2.633  15.202  0.00  0.00    +0.000 A 
ATOM     24  C   UNL     1      39.198  -2.862  15.785  0.00  0.00    +0.000 A 
ATOM     25  C   UNL     1      38.217  -1.873  15.878  0.00  0.00    +0.000 A 
ATOM     26  C   UNL     1      38.531  -0.654  15.355  0.00  0.00    +0.000 A 
ATOM     27  C   UNL     1      39.752  -0.388  14.759  0.00  0.00    +0.000 A 
BRANCH  25  28
ATOM     28  C   UNL     1      36.924  -2.183  16.516  0.00  0.00    +0.000 C 
ATOM     29  C   UNL     1      35.746  -1.909  15.612  0.00  0.00    +0.000 C 
ATOM     30  C   UNL     1      36.719  -1.366  17.786  0.00  0.00    +0.000 C 
ATOM     31  C   UNL     1      36.812  -3.648  16.925  0.00  0.00    +0.000 C 
ENDBRANCH  25  28
BRANCH  22  33
ATOM     32  C   UNL     1      42.308  -1.636  12.829  0.00  0.00    +0.000 C 
ATOM     33  O   UNL     1      41.950  -1.124  14.080  0.00  0.00    +0.000 OA
ENDBRANCH  22  33
ENDBRANCH  19  27
ENDBRANCH  18  20
ENDBRANCH   1  18
TORSDOF 7
ENDMDL
MODEL 5
REMARK VINA RESULT:      -8.5      1.663      3.095
REMARK  Name = 
REMARK  7 active torsions:
REMARK  status: ('A' for Active; 'I' for Inactive)
REMARK    1  A    between atoms: O_2  and  C_3
REMARK    2  A    between atoms: C_6  and  C_7
REMARK    3  A    between atoms: C_12  and  N_13
REMARK    4  A    between atoms: C_14  and  C_16
REMARK    5  A    between atoms: C_16  and  O_17
REMARK    6  A    between atoms: O_17  and  C_18
REMARK    7  A    between atoms: C_18  and  C_20
REMARK                            x       y       z     vdW  Elec       q    Type
REMARK                         _______ _______ _______ _____ _____    ______ ____
ROOT
ATOM      1  O   UNL     1      36.528   3.824  16.127  0.00  0.00    +0.000 OA
ENDROOT
BRANCH   1   2
ATOM      2  C   UNL     1      35.721   2.733  15.815  0.00  0.00    +0.000 C 
ATOM      3  O   UNL     1      34.511   2.931  15.618  0.00  0.00    +0.000 OA
BRANCH   2   4
ATOM      4  C   UNL     1      36.251   1.383  15.714  0.00  0.00    +0.000 A 
ATOM      5  C   UNL     1      36.330   0.527  16.799  0.00  0.00    +0.000 A 
ATOM      6  C   UNL     1      35.879   0.952  18.037  0.00  0.00    +0.000 A 
ATOM      7  C   UNL     1      35.948   0.107  19.121  0.00  0.00    +0.000 A 
ATOM      8  C   UNL     1      36.455  -1.165  19.023  0.00  0.00    +0.000 A 
ATOM      9  C   UNL     1      36.908  -1.610  17.812  0.00  0.00    +0.000 A 
ATOM     10  C   UNL     1      36.838  -0.758  16.723  0.00  0.00    +0.000 A 
ATOM     11  C   UNL     1      37.287  -1.194  15.491  0.00  0.00    +0.000 A 
ATOM     12  C   UNL     1      37.229  -0.385  14.390  0.00  0.00    +0.000 A 
ATOM     13  C   UNL     1      37.695  -0.873  13.186  0.00  0.00    +0.000 A 
ATOM     14  C   UNL     1      37.624  -0.030  12.113  0.00  0.00    +0.000 A 
ATOM     15  C   UNL     1      37.121   1.244  12.183  0.00  0.00    +0.000 A 
ATOM     16  C   UNL     1      36.655   1.729  13.391  0.00  0.00    +0.000 A 
ATOM     17  C   UNL     1      36.713   0.895  14.508  0.00  0.00    +0.000 A 
ENDBRANCH   2   4
ENDBRANCH   1   2
BRANCH   1  18
ATOM     18  C   UNL     1      37.906   3.816  16.274  0.00  0.00    +0.000 C 
BRANCH  18  20
ATOM     19  N   UNL     1      38.984   5.894  17.214  0.00  0.00    +0.000 NA
ATOM     20  C   UNL     1      38.459   4.583  17.380  0.00  0.00    +0.000 C 
ATOM     21  O   UNL     1      38.486   4.099  18.530  0.00  0.00    +0.000 OA
BRANCH  19  27
ATOM     22  C   UNL     1      38.705   7.477  19.021  0.00  0.00    +0.000 A 
ATOM     23  C   UNL     1      39.241   8.189  20.102  0.00  0.00    +0.000 A 
ATOM     24  C   UNL     1      40.560   8.014  20.442  0.00  0.00    +0.000 A 
ATOM     25  C   UNL     1      41.401   7.145  19.746  0.00  0.00    +0.000 A 
ATOM     26  C   UNL     1      40.848   6.469  18.699  0.00  0.00    +0.000 A 
ATOM     27  C   UNL     1      39.522   6.621  18.329  0.00  0.00    +0.000 A 
BRANCH  25  28
ATOM     28  C   UNL     1      42.811   7.003  20.160  0.00  0.00    +0.000 C 
ATOM     29  C   UNL     1      43.029   5.844  21.102  0.00  0.00    +0.000 C 
ATOM     30  C   UNL     1      43.314   8.258  20.861  0.00  0.00    +0.000 C 
ATOM     31  C   UNL     1      43.744   6.768  18.975  0.00  0.00    +0.000 C 
ENDBRANCH  25  28
BRANCH  22  33
ATOM     32  C   UNL     1      36.663   8.837  18.888  0.00  0.00    +0.000 C 
ATOM     33  O   UNL     1      37.362   7.647  18.668  0.00  0.00    +0.000 OA
ENDBRANCH  22  33
ENDBRANCH  19  27
ENDBRANCH  18  20
ENDBRANCH   1  18
TORSDOF 7
ENDMDL
MODEL 6
REMARK VINA RESULT:      -8.3      1.677      2.482
REMARK  Name = 
REMARK  7 active torsions:
REMARK  status: ('A' for Active; 'I' for Inactive)
REMARK    1  A    between atoms: O_2  and  C_3
REMARK    2  A    between atoms: C_6  and  C_7
REMARK    3  A    between atoms: C_12  and  N_13
REMARK    4  A    between atoms: C_14  and  C_16
REMARK    5  A    between atoms: C_16  and  O_17
REMARK    6  A    between atoms: O_17  and  C_18
REMARK    7  A    between atoms: C_18  and  C_20
REMARK                            x       y       z     vdW  Elec       q    Type
REMARK                         _______ _______ _______ _____ _____    ______ ____
ROOT
ATOM      1  O   UNL     1      38.418   2.172  13.614  0.00  0.00    +0.000 OA
ENDROOT
BRANCH   1   2
ATOM      2  C   UNL     1      37.723   0.965  13.617  0.00  0.00    +0.000 C 
ATOM      3  O   UNL     1      37.068   0.658  12.607  0.00  0.00    +0.000 OA
BRANCH   2   4
ATOM      4  C   UNL     1      37.746   0.063  14.758  0.00  0.00    +0.000 A 
ATOM      5  C   UNL     1      38.685  -0.944  14.896  0.00  0.00    +0.000 A 
ATOM      6  C   UNL     1      39.657  -1.108  13.925  0.00  0.00    +0.000 A 
ATOM      7  C   UNL     1      40.599  -2.104  14.056  0.00  0.00    +0.000 A 
ATOM      8  C   UNL     1      40.612  -2.957  15.132  0.00  0.00    +0.000 A 
ATOM      9  C   UNL     1      39.663  -2.817  16.105  0.00  0.00    +0.000 A 
ATOM     10  C   UNL     1      38.716  -1.816  15.971  0.00  0.00    +0.000 A 
ATOM     11  C   UNL     1      37.753  -1.658  16.948  0.00  0.00    +0.000 A 
ATOM     12  C   UNL     1      36.805  -0.678  16.856  0.00  0.00    +0.000 A 
ATOM     13  C   UNL     1      35.865  -0.569  17.860  0.00  0.00    +0.000 A 
ATOM     14  C   UNL     1      34.933   0.421  17.726  0.00  0.00    +0.000 A 
ATOM     15  C   UNL     1      34.897   1.287  16.663  0.00  0.00    +0.000 A 
ATOM     16  C   UNL     1      35.841   1.176  15.659  0.00  0.00    +0.000 A 
ATOM     17  C   UNL     1      36.807   0.175  15.764  0.00  0.00    +0.000 A 
ENDBRANCH   2   4
ENDBRANCH   1   2
BRANCH   1  18
ATOM     18  C   UNL     1      39.348   2.591  14.552  0.00  0.00    +0.000 C 
BRANCH  18  20
ATOM     19  N   UNL     1      39.491   5.013  15.245  0.00  0.00    +0.000 NA
ATOM     20  C   UNL     1      38.967   3.702  15.412  0.00  0.00    +0.000 C 
ATOM     21  O   UNL     1      38.151   3.527  16.340  0.00  0.00    +0.000 OA
BRANCH  19  27
ATOM     22  C   UNL     1      38.101   6.937  15.704  0.00  0.00    +0.000 A 
ATOM     23  C   UNL     1      37.725   7.985  16.556  0.00  0.00    +0.000 A 
ATOM     24  C   UNL     1      38.351   8.131  17.768  0.00  0.00    +0.000 A 
ATOM     25  C   UNL     1      39.360   7.268  18.197  0.00  0.00    +0.000 A 
ATOM     26  C   UNL     1      39.703   6.261  17.344  0.00  0.00    +0.000 A 
ATOM     27  C   UNL     1      39.093   6.084  16.114  0.00  0.00    +0.000 A 
BRANCH  25  28
ATOM     28  C   UNL     1      39.995   7.480  19.512  0.00  0.00    +0.000 C 
ATOM     29  C   UNL     1      40.734   6.261  20.007  0.00  0.00    +0.000 C 
ATOM     30  C   UNL     1      38.967   7.850  20.574  0.00  0.00    +0.000 C 
ATOM     31  C   UNL     1      41.016   8.614  19.489  0.00  0.00    +0.000 C 
ENDBRANCH  25  28
BRANCH  22  33
ATOM     32  C   UNL     1      36.221   6.165  14.324  0.00  0.00    +0.000 C 
ATOM     33  O   UNL     1      37.468   6.779  14.467  0.00  0.00    +0.000 OA
ENDBRANCH  22  33
ENDBRANCH  19  27
ENDBRANCH  18  20
ENDBRANCH   1  18
TORSDOF 7
ENDMDL
MODEL 7
REMARK VINA RESULT:      -8.3      1.670      3.919
REMARK  Name = 
REMARK  7 active torsions:
REMARK  status: ('A' for Active; 'I' for Inactive)
REMARK    1  A    between atoms: O_2  and  C_3
REMARK    2  A    between atoms: C_6  and  C_7
REMARK    3  A    between atoms: C_12  and  N_13
REMARK    4  A    between atoms: C_14  and  C_16
REMARK    5  A    between atoms: C_16  and  O_17
REMARK    6  A    between atoms: O_17  and  C_18
REMARK    7  A    between atoms: C_18  and  C_20
REMARK                            x       y       z     vdW  Elec       q    Type
REMARK                         _______ _______ _______ _____ _____    ______ ____
ROOT
ATOM      1  O   UNL     1      38.429   2.150  13.621  0.00  0.00    +0.000 OA
ENDROOT
BRANCH   1   2
ATOM      2  C   UNL     1      37.730   0.945  13.626  0.00  0.00    +0.000 C 
ATOM      3  O   UNL     1      37.048   0.654  12.630  0.00  0.00    +0.000 OA
BRANCH   2   4
ATOM      4  C   UNL     1      37.780   0.027  14.753  0.00  0.00    +0.000 A 
ATOM      5  C   UNL     1      36.874   0.078  15.798  0.00  0.00    +0.000 A 
ATOM      6  C   UNL     1      35.866   1.026  15.782  0.00  0.00    +0.000 A 
ATOM      7  C   UNL     1      34.957   1.081  16.815  0.00  0.00    +0.000 A 
ATOM      8  C   UNL     1      35.011   0.218  17.880  0.00  0.00    +0.000 A 
ATOM      9  C   UNL     1      35.997  -0.728  17.921  0.00  0.00    +0.000 A 
ATOM     10  C   UNL     1      36.910  -0.782  16.882  0.00  0.00    +0.000 A 
ATOM     11  C   UNL     1      37.910  -1.735  16.906  0.00  0.00    +0.000 A 
ATOM     12  C   UNL     1      38.827  -1.825  15.897  0.00  0.00    +0.000 A 
ATOM     13  C   UNL     1      39.806  -2.794  15.976  0.00  0.00    +0.000 A 
ATOM     14  C   UNL     1      40.705  -2.846  14.948  0.00  0.00    +0.000 A 
ATOM     15  C   UNL     1      40.674  -1.996  13.872  0.00  0.00    +0.000 A 
ATOM     16  C   UNL     1      39.691  -1.026  13.796  0.00  0.00    +0.000 A 
ATOM     17  C   UNL     1      38.757  -0.945  14.829  0.00  0.00    +0.000 A 
ENDBRANCH   2   4
ENDBRANCH   1   2
BRANCH   1  18
ATOM     18  C   UNL     1      39.352   2.573  14.564  0.00  0.00    +0.000 C 
BRANCH  18  20
ATOM     19  N   UNL     1      39.489   4.996  15.251  0.00  0.00    +0.000 NA
ATOM     20  C   UNL     1      38.964   3.686  15.418  0.00  0.00    +0.000 C 
ATOM     21  O   UNL     1      38.140   3.514  16.340  0.00  0.00    +0.000 OA
BRANCH  19  27
ATOM     22  C   UNL     1      38.084   6.913  15.699  0.00  0.00    +0.000 A 
ATOM     23  C   UNL     1      37.701   7.963  16.545  0.00  0.00    +0.000 A 
ATOM     24  C   UNL     1      38.328   8.122  17.755  0.00  0.00    +0.000 A 
ATOM     25  C   UNL     1      39.345   7.270  18.188  0.00  0.00    +0.000 A 
ATOM     26  C   UNL     1      39.694   6.260  17.341  0.00  0.00    +0.000 A 
ATOM     27  C   UNL     1      39.083   6.070  16.113  0.00  0.00    +0.000 A 
BRANCH  25  28
ATOM     28  C   UNL     1      39.980   7.496  19.500  0.00  0.00    +0.000 C 
ATOM     29  C   UNL     1      40.725   6.284  20.005  0.00  0.00    +0.000 C 
ATOM     30  C   UNL     1      38.951   7.870  20.560  0.00  0.00    +0.000 C 
ATOM     31  C   UNL     1      40.995   8.634  19.467  0.00  0.00    +0.000 C 
ENDBRANCH  25  28
BRANCH  22  33
ATOM     32  C   UNL     1      36.213   6.106  14.326  0.00  0.00    +0.000 C 
ATOM     33  O   UNL     1      37.451   6.741  14.465  0.00  0.00    +0.000 OA
ENDBRANCH  22  33
ENDBRANCH  19  27
ENDBRANCH  18  20
ENDBRANCH   1  18
TORSDOF 7
ENDMDL
MODEL 8
REMARK VINA RESULT:      -8.2      1.886      2.326
REMARK  Name = 
REMARK  7 active torsions:
REMARK  status: ('A' for Active; 'I' for Inactive)
REMARK    1  A    between atoms: O_2  and  C_3
REMARK    2  A    between atoms: C_6  and  C_7
REMARK    3  A    between atoms: C_12  and  N_13
REMARK    4  A    between atoms: C_14  and  C_16
REMARK    5  A    between atoms: C_16  and  O_17
REMARK    6  A    between atoms: O_17  and  C_18
REMARK    7  A    between atoms: C_18  and  C_20
REMARK                            x       y       z     vdW  Elec       q    Type
REMARK                         _______ _______ _______ _____ _____    ______ ____
ROOT
ATOM      1  O   UNL     1      36.843   4.341  15.657  0.00  0.00    +0.000 OA
ENDROOT
BRANCH   1   2
ATOM      2  C   UNL     1      35.934   3.532  14.980  0.00  0.00    +0.000 C 
ATOM      3  O   UNL     1      34.841   4.022  14.648  0.00  0.00    +0.000 OA
BRANCH   2   4
ATOM      4  C   UNL     1      36.226   2.146  14.653  0.00  0.00    +0.000 A 
ATOM      5  C   UNL     1      36.864   1.772  13.483  0.00  0.00    +0.000 A 
ATOM      6  C   UNL     1      37.258   2.745  12.581  0.00  0.00    +0.000 A 
ATOM      7  C   UNL     1      37.898   2.383  11.416  0.00  0.00    +0.000 A 
ATOM      8  C   UNL     1      38.167   1.072  11.110  0.00  0.00    +0.000 A 
ATOM      9  C   UNL     1      37.788   0.092  11.983  0.00  0.00    +0.000 A 
ATOM     10  C   UNL     1      37.144   0.457  13.153  0.00  0.00    +0.000 A 
ATOM     11  C   UNL     1      36.759  -0.521  14.049  0.00  0.00    +0.000 A 
ATOM     12  C   UNL     1      36.126  -0.201  15.218  0.00  0.00    +0.000 A 
ATOM     13  C   UNL     1      35.761  -1.220  16.074  0.00  0.00    +0.000 A 
ATOM     14  C   UNL     1      35.127  -0.856  17.228  0.00  0.00    +0.000 A 
ATOM     15  C   UNL     1      34.847   0.445  17.560  0.00  0.00    +0.000 A 
ATOM     16  C   UNL     1      35.215   1.464  16.701  0.00  0.00    +0.000 A 
ATOM     17  C   UNL     1      35.864   1.127  15.512  0.00  0.00    +0.000 A 
ENDBRANCH   2   4
ENDBRANCH   1   2
BRANCH   1  18
ATOM     18  C   UNL     1      38.093   3.966  16.123  0.00  0.00    +0.000 C 
BRANCH  18  20
ATOM     19  N   UNL     1      39.172   5.984  17.185  0.00  0.00    +0.000 NA
ATOM     20  C   UNL     1      38.611   4.681  17.280  0.00  0.00    +0.000 C 
ATOM     21  O   UNL     1      38.574   4.156  18.412  0.00  0.00    +0.000 OA
BRANCH  19  27
ATOM     22  C   UNL     1      38.828   7.468  19.064  0.00  0.00    +0.000 A 
ATOM     23  C   UNL     1      39.330   8.129  20.193  0.00  0.00    +0.000 A 
ATOM     24  C   UNL     1      40.642   7.952  20.556  0.00  0.00    +0.000 A 
ATOM     25  C   UNL     1      41.511   7.130  19.837  0.00  0.00    +0.000 A 
ATOM     26  C   UNL     1      40.992   6.503  18.743  0.00  0.00    +0.000 A 
ATOM     27  C   UNL     1      39.674   6.659  18.349  0.00  0.00    +0.000 A 
BRANCH  25  28
ATOM     28  C   UNL     1      42.912   6.984  20.277  0.00  0.00    +0.000 C 
ATOM     29  C   UNL     1      43.873   6.822  19.125  0.00  0.00    +0.000 C 
ATOM     30  C   UNL     1      43.086   5.773  21.186  0.00  0.00    +0.000 C 
ATOM     31  C   UNL     1      43.401   8.191  21.072  0.00  0.00    +0.000 C 
ENDBRANCH  25  28
BRANCH  22  33
ATOM     32  C   UNL     1      36.758   8.788  18.995  0.00  0.00    +0.000 C 
ATOM     33  O   UNL     1      37.493   7.640  18.688  0.00  0.00    +0.000 OA
ENDBRANCH  22  33
ENDBRANCH  19  27
ENDBRANCH  18  20
ENDBRANCH   1  18
TORSDOF 7
ENDMDL
MODEL 9
REMARK VINA RESULT:      -8.2     23.280     26.368
REMARK  Name = 
REMARK  7 active torsions:
REMARK  status: ('A' for Active; 'I' for Inactive)
REMARK    1  A    between atoms: O_2  and  C_3
REMARK    2  A    between atoms: C_6  and  C_7
REMARK    3  A    between atoms: C_12  and  N_13
REMARK    4  A    between atoms: C_14  and  C_16
REMARK    5  A    between atoms: C_16  and  O_17
REMARK    6  A    between atoms: O_17  and  C_18
REMARK    7  A    between atoms: C_18  and  C_20
REMARK                            x       y       z     vdW  Elec       q    Type
REMARK                         _______ _______ _______ _____ _____    ______ ____
ROOT
ATOM      1  O   UNL     1      26.810  18.104  36.972  0.00  0.00    +0.000 OA
ENDROOT
BRANCH   1   2
ATOM      2  C   UNL     1      25.514  17.782  36.574  0.00  0.00    +0.000 C 
ATOM      3  O   UNL     1      24.685  17.482  37.449  0.00  0.00    +0.000 OA
BRANCH   2   4
ATOM      4  C   UNL     1      25.110  17.790  35.178  0.00  0.00    +0.000 A 
ATOM      5  C   UNL     1      24.545  18.898  34.569  0.00  0.00    +0.000 A 
ATOM      6  C   UNL     1      24.361  20.058  35.300  0.00  0.00    +0.000 A 
ATOM      7  C   UNL     1      23.805  21.167  34.702  0.00  0.00    +0.000 A 
ATOM      8  C   UNL     1      23.419  21.168  33.385  0.00  0.00    +0.000 A 
ATOM      9  C   UNL     1      23.590  20.035  32.640  0.00  0.00    +0.000 A 
ATOM     10  C   UNL     1      24.149  18.921  33.242  0.00  0.00    +0.000 A 
ATOM     11  C   UNL     1      24.333  17.769  32.502  0.00  0.00    +0.000 A 
ATOM     12  C   UNL     1      24.887  16.651  33.059  0.00  0.00    +0.000 A 
ATOM     13  C   UNL     1      25.043  15.528  32.273  0.00  0.00    +0.000 A 
ATOM     14  C   UNL     1      25.596  14.430  32.870  0.00  0.00    +0.000 A 
ATOM     15  C   UNL     1      25.991  14.402  34.184  0.00  0.00    +0.000 A 
ATOM     16  C   UNL     1      25.833  15.529  34.969  0.00  0.00    +0.000 A 
ATOM     17  C   UNL     1      25.271  16.668  34.390  0.00  0.00    +0.000 A 
ENDBRANCH   2   4
ENDBRANCH   1   2
BRANCH   1  18
ATOM     18  C   UNL     1      27.497  17.570  38.051  0.00  0.00    +0.000 C 
BRANCH  18  20
ATOM     19  N   UNL     1      29.608  16.355  37.393  0.00  0.00    +0.000 NA
ATOM     20  C   UNL     1      28.251  16.348  37.817  0.00  0.00    +0.000 C 
ATOM     21  O   UNL     1      27.711  15.235  37.988  0.00  0.00    +0.000 OA
BRANCH  19  27
ATOM     22  C   UNL     1      30.416  14.639  35.894  0.00  0.00    +0.000 A 
ATOM     23  C   UNL     1      31.105  13.435  35.688  0.00  0.00    +0.000 A 
ATOM     24  C   UNL     1      31.661  12.780  36.759  0.00  0.00    +0.000 A 
ATOM     25  C   UNL     1      31.570  13.269  38.063  0.00  0.00    +0.000 A 
ATOM     26  C   UNL     1      30.892  14.441  38.228  0.00  0.00    +0.000 A 
ATOM     27  C   UNL     1      30.319  15.127  37.171  0.00  0.00    +0.000 A 
BRANCH  25  28
ATOM     28  C   UNL     1      32.187  12.517  39.172  0.00  0.00    +0.000 C 
ATOM     29  C   UNL     1      31.314  11.393  39.674  0.00  0.00    +0.000 C 
ATOM     30  C   UNL     1      32.488  13.423  40.359  0.00  0.00    +0.000 C 
ATOM     31  C   UNL     1      33.514  11.877  38.772  0.00  0.00    +0.000 C 
ENDBRANCH  25  28
BRANCH  22  33
ATOM     32  C   UNL     1      30.505  16.337  34.121  0.00  0.00    +0.000 C 
ATOM     33  O   UNL     1      29.848  15.314  34.810  0.00  0.00    +0.000 OA
ENDBRANCH  22  33
ENDBRANCH  19  27
ENDBRANCH  18  20
ENDBRANCH   1  18
TORSDOF 7
ENDMDL
MODEL 10
REMARK VINA RESULT:      -8.0     23.439     26.419
REMARK  Name = 
REMARK  7 active torsions:
REMARK  status: ('A' for Active; 'I' for Inactive)
REMARK    1  A    between atoms: O_2  and  C_3
REMARK    2  A    between atoms: C_6  and  C_7
REMARK    3  A    between atoms: C_12  and  N_13
REMARK    4  A    between atoms: C_14  and  C_16
REMARK    5  A    between atoms: C_16  and  O_17
REMARK    6  A    between atoms: O_17  and  C_18
REMARK    7  A    between atoms: C_18  and  C_20
REMARK                            x       y       z     vdW  Elec       q    Type
REMARK                         _______ _______ _______ _____ _____    ______ ____
ROOT
ATOM      1  O   UNL     1      26.682  18.137  37.219  0.00  0.00    +0.000 OA
ENDROOT
BRANCH   1   2
ATOM      2  C   UNL     1      25.415  17.770  36.770  0.00  0.00    +0.000 C 
ATOM      3  O   UNL     1      24.573  17.407  37.609  0.00  0.00    +0.000 OA
BRANCH   2   4
ATOM      4  C   UNL     1      25.056  17.800  35.362  0.00  0.00    +0.000 A 
ATOM      5  C   UNL     1      25.229  16.713  34.522  0.00  0.00    +0.000 A 
ATOM      6  C   UNL     1      25.753  15.537  35.029  0.00  0.00    +0.000 A 
ATOM      7  C   UNL     1      25.925  14.449  34.203  0.00  0.00    +0.000 A 
ATOM      8  C   UNL     1      25.590  14.484  32.873  0.00  0.00    +0.000 A 
ATOM      9  C   UNL     1      25.070  15.633  32.347  0.00  0.00    +0.000 A 
ATOM     10  C   UNL     1      24.899  16.727  33.178  0.00  0.00    +0.000 A 
ATOM     11  C   UNL     1      24.370  17.894  32.663  0.00  0.00    +0.000 A 
ATOM     12  C   UNL     1      24.180  18.994  33.453  0.00  0.00    +0.000 A 
ATOM     13  C   UNL     1      23.652  20.135  32.883  0.00  0.00    +0.000 A 
ATOM     14  C   UNL     1      23.483  21.212  33.707  0.00  0.00    +0.000 A 
ATOM     15  C   UNL     1      23.809  21.204  35.040  0.00  0.00    +0.000 A 
ATOM     16  C   UNL     1      24.337  20.059  35.607  0.00  0.00    +0.000 A 
ATOM     17  C   UNL     1      24.523  18.940  34.794  0.00  0.00    +0.000 A 
ENDBRANCH   2   4
ENDBRANCH   1   2
BRANCH   1  18
ATOM     18  C   UNL     1      27.381  17.568  38.272  0.00  0.00    +0.000 C 
BRANCH  18  20
ATOM     19  N   UNL     1      29.527  16.414  37.619  0.00  0.00    +0.000 NA
ATOM     20  C   UNL     1      28.154  16.369  37.982  0.00  0.00    +0.000 C 
ATOM     21  O   UNL     1      27.617  15.244  38.048  0.00  0.00    +0.000 OA
BRANCH  19  27
ATOM     22  C   UNL     1      30.363  14.785  36.040  0.00  0.00    +0.000 A 
ATOM     23  C   UNL     1      31.071  13.604  35.777  0.00  0.00    +0.000 A 
ATOM     24  C   UNL     1      31.637  12.907  36.816  0.00  0.00    +0.000 A 
ATOM     25  C   UNL     1      31.537  13.331  38.142  0.00  0.00    +0.000 A 
ATOM     26  C   UNL     1      30.841  14.483  38.362  0.00  0.00    +0.000 A 
ATOM     27  C   UNL     1      30.258  15.211  37.339  0.00  0.00    +0.000 A 
BRANCH  25  28
ATOM     28  C   UNL     1      32.166  12.536  39.213  0.00  0.00    +0.000 C 
ATOM     29  C   UNL     1      32.485  13.357  40.439  0.00  0.00    +0.000 C 
ATOM     30  C   UNL     1      33.469  11.900  38.743  0.00  0.00    +0.000 C 
ATOM     31  C   UNL     1      31.276  11.392  39.688  0.00  0.00    +0.000 C 
ENDBRANCH  25  28
BRANCH  22  33
ATOM     32  C   UNL     1      30.526  16.305  34.116  0.00  0.00    +0.000 C 
ATOM     33  O   UNL     1      29.785  15.503  34.989  0.00  0.00    +0.000 OA
ENDBRANCH  22  33
ENDBRANCH  19  27
ENDBRANCH  18  20
ENDBRANCH   1  18
TORSDOF 7
ENDMDL
