MODEL 1
REMARK VINA RESULT:      -7.6      0.000      0.000
REMARK  Name = 
REMARK  0 active torsions:
REMARK  status: ('A' for Active; 'I' for Inactive)
REMARK                            x       y       z     vdW  Elec       q    Type
REMARK                         _______ _______ _______ _____ _____    ______ ____
ROOT
ATOM      1  C   UNL     1       8.200  21.974  21.369  0.00  0.00    +0.000 C 
ATOM      2  C   UNL     1       9.421  21.229  20.775  0.00  0.00    +0.000 C 
ATOM      3  C   UNL     1       9.980  22.043  19.842  0.00  0.00    +0.000 C 
ATOM      4  C   UNL     1      10.649  23.230  20.333  0.00  0.00    +0.000 C 
ATOM      5  C   UNL     1      11.002  23.091  21.895  0.00  0.00    +0.000 C 
ATOM      6  C   UNL     1      12.424  23.771  21.801  0.00  0.00    +0.000 A 
ATOM      7  C   UNL     1      12.669  24.841  22.616  0.00  0.00    +0.000 A 
ATOM      8  C   UNL     1      13.911  25.429  22.530  0.00  0.00    +0.000 A 
ATOM      9  C   UNL     1      14.892  24.990  21.670  0.00  0.00    +0.000 A 
ATOM     10  O   UNL     1      16.154  25.626  21.615  0.00  0.00    +0.000 OA
ATOM     11  C   UNL     1      14.597  23.912  20.871  0.00  0.00    +0.000 A 
ATOM     12  C   UNL     1      13.357  23.323  20.958  0.00  0.00    +0.000 A 
ATOM     13  C   UNL     1      13.102  22.166  20.070  0.00  0.00    +0.000 C 
ATOM     14  C   UNL     1      12.090  21.227  20.514  0.00  0.00    +0.000 C 
ATOM     15  C   UNL     1      11.648  21.545  21.992  0.00  0.00    +0.000 C 
ATOM     16  C   UNL     1      10.159  20.763  22.093  0.00  0.00    +0.000 C 
ATOM     17  C   UNL     1      10.689  19.319  21.629  0.00  0.00    +0.000 C 
ATOM     18  C   UNL     1      10.992  19.159  20.262  0.00  0.00    +0.000 C 
ATOM     19  C   UNL     1       9.945  19.435  19.275  0.00  0.00    +0.000 C 
ATOM     20  C   UNL     1       8.673  19.916  20.193  0.00  0.00    +0.000 C 
ATOM     21  O   UNL     1       8.051  20.682  19.046  0.00  0.00    +0.000 OA
ENDROOT
TORSDOF 0
ENDMDL
MODEL 2
REMARK VINA RESULT:      -7.0     15.011     17.865
REMARK  Name = 
REMARK  0 active torsions:
REMARK  status: ('A' for Active; 'I' for Inactive)
REMARK                            x       y       z     vdW  Elec       q    Type
REMARK                         _______ _______ _______ _____ _____    ______ ____
ROOT
ATOM      1  C   UNL     1      29.955  24.386  29.361  0.00  0.00    +0.000 C 
ATOM      2  C   UNL     1      28.436  24.087  29.313  0.00  0.00    +0.000 C 
ATOM      3  C   UNL     1      27.856  25.052  28.553  0.00  0.00    +0.000 C 
ATOM      4  C   UNL     1      28.143  25.022  27.134  0.00  0.00    +0.000 C 
ATOM      5  C   UNL     1      28.701  23.582  26.687  0.00  0.00    +0.000 C 
ATOM      6  C   UNL     1      27.910  23.520  25.321  0.00  0.00    +0.000 A 
ATOM      7  C   UNL     1      28.633  23.313  24.180  0.00  0.00    +0.000 A 
ATOM      8  C   UNL     1      27.938  23.259  22.993  0.00  0.00    +0.000 A 
ATOM      9  C   UNL     1      26.572  23.404  22.915  0.00  0.00    +0.000 A 
ATOM     10  O   UNL     1      25.899  23.342  21.672  0.00  0.00    +0.000 OA
ATOM     11  C   UNL     1      25.889  23.612  24.090  0.00  0.00    +0.000 A 
ATOM     12  C   UNL     1      26.583  23.664  25.276  0.00  0.00    +0.000 A 
ATOM     13  C   UNL     1      25.790  23.890  26.506  0.00  0.00    +0.000 C 
ATOM     14  C   UNL     1      26.372  23.406  27.742  0.00  0.00    +0.000 C 
ATOM     15  C   UNL     1      27.643  22.524  27.451  0.00  0.00    +0.000 C 
ATOM     16  C   UNL     1      28.443  22.553  28.933  0.00  0.00    +0.000 C 
ATOM     17  C   UNL     1      27.202  22.035  29.811  0.00  0.00    +0.000 C 
ATOM     18  C   UNL     1      26.158  22.952  30.044  0.00  0.00    +0.000 C 
ATOM     19  C   UNL     1      26.477  24.230  30.686  0.00  0.00    +0.000 C 
ATOM     20  C   UNL     1      28.103  24.155  30.896  0.00  0.00    +0.000 C 
ATOM     21  O   UNL     1      28.232  25.661  30.940  0.00  0.00    +0.000 OA
ENDROOT
TORSDOF 0
ENDMDL
MODEL 3
REMARK VINA RESULT:      -7.0     16.461     17.938
REMARK  Name = 
REMARK  0 active torsions:
REMARK  status: ('A' for Active; 'I' for Inactive)
REMARK                            x       y       z     vdW  Elec       q    Type
REMARK                         _______ _______ _______ _____ _____    ______ ____
ROOT
ATOM      1  C   UNL     1      25.665  24.902  29.228  0.00  0.00    +0.000 C 
ATOM      2  C   UNL     1      26.929  24.022  29.061  0.00  0.00    +0.000 C 
ATOM      3  C   UNL     1      26.635  23.058  28.150  0.00  0.00    +0.000 C 
ATOM      4  C   UNL     1      26.470  23.489  26.777  0.00  0.00    +0.000 C 
ATOM      5  C   UNL     1      27.134  24.934  26.542  0.00  0.00    +0.000 C 
ATOM      6  C   UNL     1      27.734  24.606  25.118  0.00  0.00    +0.000 A 
ATOM      7  C   UNL     1      27.395  25.430  24.083  0.00  0.00    +0.000 A 
ATOM      8  C   UNL     1      27.922  25.139  22.844  0.00  0.00    +0.000 A 
ATOM      9  C   UNL     1      28.759  24.070  22.617  0.00  0.00    +0.000 A 
ATOM     10  O   UNL     1      29.277  23.808  21.327  0.00  0.00    +0.000 OA
ATOM     11  C   UNL     1      29.070  23.269  23.690  0.00  0.00    +0.000 A 
ATOM     12  C   UNL     1      28.544  23.561  24.927  0.00  0.00    +0.000 A 
ATOM     13  C   UNL     1      28.917  22.661  26.042  0.00  0.00    +0.000 C 
ATOM     14  C   UNL     1      28.857  23.230  27.374  0.00  0.00    +0.000 C 
ATOM     15  C   UNL     1      28.623  24.786  27.304  0.00  0.00    +0.000 C 
ATOM     16  C   UNL     1      28.039  25.126  28.847  0.00  0.00    +0.000 C 
ATOM     17  C   UNL     1      29.263  24.462  29.647  0.00  0.00    +0.000 C 
ATOM     18  C   UNL     1      29.315  23.054  29.678  0.00  0.00    +0.000 C 
ATOM     19  C   UNL     1      28.164  22.321  30.210  0.00  0.00    +0.000 C 
ATOM     20  C   UNL     1      27.097  23.509  30.587  0.00  0.00    +0.000 C 
ATOM     21  O   UNL     1      25.916  22.569  30.485  0.00  0.00    +0.000 OA
ENDROOT
TORSDOF 0
ENDMDL
MODEL 4
REMARK VINA RESULT:      -6.7     15.881     17.312
REMARK  Name = 
REMARK  0 active torsions:
REMARK  status: ('A' for Active; 'I' for Inactive)
REMARK                            x       y       z     vdW  Elec       q    Type
REMARK                         _______ _______ _______ _____ _____    ______ ____
ROOT
ATOM      1  C   UNL     1      26.905  27.047  23.627  0.00  0.00    +0.000 C 
ATOM      2  C   UNL     1      27.658  25.697  23.527  0.00  0.00    +0.000 C 
ATOM      3  C   UNL     1      28.583  25.674  24.522  0.00  0.00    +0.000 C 
ATOM      4  C   UNL     1      28.080  25.558  25.875  0.00  0.00    +0.000 C 
ATOM      5  C   UNL     1      26.570  25.007  25.885  0.00  0.00    +0.000 C 
ATOM      6  C   UNL     1      26.751  24.064  27.139  0.00  0.00    +0.000 A 
ATOM      7  C   UNL     1      25.893  24.235  28.189  0.00  0.00    +0.000 A 
ATOM      8  C   UNL     1      26.056  23.409  29.279  0.00  0.00    +0.000 A 
ATOM      9  C   UNL     1      27.030  22.439  29.347  0.00  0.00    +0.000 A 
ATOM     10  O   UNL     1      27.161  21.613  30.488  0.00  0.00    +0.000 OA
ATOM     11  C   UNL     1      27.869  22.306  28.266  0.00  0.00    +0.000 A 
ATOM     12  C   UNL     1      27.705  23.131  27.177  0.00  0.00    +0.000 A 
ATOM     13  C   UNL     1      28.640  22.937  26.046  0.00  0.00    +0.000 C 
ATOM     14  C   UNL     1      28.167  23.361  24.743  0.00  0.00    +0.000 C 
ATOM     15  C   UNL     1      26.636  23.728  24.800  0.00  0.00    +0.000 C 
ATOM     16  C   UNL     1      26.449  24.684  23.426  0.00  0.00    +0.000 C 
ATOM     17  C   UNL     1      27.055  23.618  22.387  0.00  0.00    +0.000 C 
ATOM     18  C   UNL     1      28.452  23.433  22.405  0.00  0.00    +0.000 C 
ATOM     19  C   UNL     1      29.316  24.596  22.192  0.00  0.00    +0.000 C 
ATOM     20  C   UNL     1      28.254  25.836  22.028  0.00  0.00    +0.000 C 
ATOM     21  O   UNL     1      29.284  26.861  22.447  0.00  0.00    +0.000 OA
ENDROOT
TORSDOF 0
ENDMDL
MODEL 5
REMARK VINA RESULT:      -6.7     15.975     18.883
REMARK  Name = 
REMARK  0 active torsions:
REMARK  status: ('A' for Active; 'I' for Inactive)
REMARK                            x       y       z     vdW  Elec       q    Type
REMARK                         _______ _______ _______ _____ _____    ______ ____
ROOT
ATOM      1  C   UNL     1      29.438  26.882  22.992  0.00  0.00    +0.000 C 
ATOM      2  C   UNL     1      28.793  25.484  23.162  0.00  0.00    +0.000 C 
ATOM      3  C   UNL     1      29.792  24.565  23.090  0.00  0.00    +0.000 C 
ATOM      4  C   UNL     1      30.722  24.528  24.199  0.00  0.00    +0.000 C 
ATOM      5  C   UNL     1      30.105  25.252  25.496  0.00  0.00    +0.000 C 
ATOM      6  C   UNL     1      30.657  24.206  26.542  0.00  0.00    +0.000 A 
ATOM      7  C   UNL     1      31.418  24.682  27.572  0.00  0.00    +0.000 A 
ATOM      8  C   UNL     1      31.896  23.766  28.482  0.00  0.00    +0.000 A 
ATOM      9  C   UNL     1      31.641  22.416  28.392  0.00  0.00    +0.000 A 
ATOM     10  O   UNL     1      32.153  21.510  29.350  0.00  0.00    +0.000 OA
ATOM     11  C   UNL     1      30.871  21.986  27.338  0.00  0.00    +0.000 A 
ATOM     12  C   UNL     1      30.394  22.902  26.430  0.00  0.00    +0.000 A 
ATOM     13  C   UNL     1      29.571  22.374  25.318  0.00  0.00    +0.000 C 
ATOM     14  C   UNL     1      28.635  23.303  24.715  0.00  0.00    +0.000 C 
ATOM     15  C   UNL     1      28.547  24.629  25.560  0.00  0.00    +0.000 C 
ATOM     16  C   UNL     1      27.903  25.717  24.446  0.00  0.00    +0.000 C 
ATOM     17  C   UNL     1      26.615  24.835  24.066  0.00  0.00    +0.000 C 
ATOM     18  C   UNL     1      26.833  23.705  23.252  0.00  0.00    +0.000 C 
ATOM     19  C   UNL     1      27.474  23.894  21.948  0.00  0.00    +0.000 C 
ATOM     20  C   UNL     1      27.777  25.506  21.902  0.00  0.00    +0.000 C 
ATOM     21  O   UNL     1      28.894  25.333  20.896  0.00  0.00    +0.000 OA
ENDROOT
TORSDOF 0
ENDMDL
MODEL 6
REMARK VINA RESULT:      -6.6     22.339     24.009
REMARK  Name = 
REMARK  0 active torsions:
REMARK  status: ('A' for Active; 'I' for Inactive)
REMARK                            x       y       z     vdW  Elec       q    Type
REMARK                         _______ _______ _______ _____ _____    ______ ____
ROOT
ATOM      1  C   UNL     1      24.509  10.274  40.474  0.00  0.00    +0.000 C 
ATOM      2  C   UNL     1      24.412  10.300  38.929  0.00  0.00    +0.000 C 
ATOM      3  C   UNL     1      23.754   9.175  38.545  0.00  0.00    +0.000 C 
ATOM      4  C   UNL     1      22.343   9.106  38.864  0.00  0.00    +0.000 C 
ATOM      5  C   UNL     1      21.750  10.566  39.181  0.00  0.00    +0.000 C 
ATOM      6  C   UNL     1      20.377  10.347  38.432  0.00  0.00    +0.000 A 
ATOM      7  C   UNL     1      19.228  10.556  39.143  0.00  0.00    +0.000 A 
ATOM      8  C   UNL     1      18.034  10.365  38.485  0.00  0.00    +0.000 A 
ATOM      9  C   UNL     1      17.957   9.978  37.166  0.00  0.00    +0.000 A 
ATOM     10  O   UNL     1      16.707   9.793  36.530  0.00  0.00    +0.000 OA
ATOM     11  C   UNL     1      19.140   9.780  36.494  0.00  0.00    +0.000 A 
ATOM     12  C   UNL     1      20.332   9.972  37.152  0.00  0.00    +0.000 A 
ATOM     13  C   UNL     1      21.570   9.743  36.372  0.00  0.00    +0.000 C 
ATOM     14  C   UNL     1      22.754  10.446  36.826  0.00  0.00    +0.000 C 
ATOM     15  C   UNL     1      22.383  11.499  37.937  0.00  0.00    +0.000 C 
ATOM     16  C   UNL     1      23.869  11.763  38.685  0.00  0.00    +0.000 C 
ATOM     17  C   UNL     1      24.672  12.149  37.348  0.00  0.00    +0.000 C 
ATOM     18  C   UNL     1      24.990  11.094  36.469  0.00  0.00    +0.000 C 
ATOM     19  C   UNL     1      25.770   9.965  36.983  0.00  0.00    +0.000 C 
ATOM     20  C   UNL     1      25.989  10.341  38.565  0.00  0.00    +0.000 C 
ATOM     21  O   UNL     1      26.197   8.892  38.947  0.00  0.00    +0.000 OA
ENDROOT
TORSDOF 0
ENDMDL
MODEL 7
REMARK VINA RESULT:      -6.5     16.879     18.214
REMARK  Name = 
REMARK  0 active torsions:
REMARK  status: ('A' for Active; 'I' for Inactive)
REMARK                            x       y       z     vdW  Elec       q    Type
REMARK                         _______ _______ _______ _____ _____    ______ ____
ROOT
ATOM      1  C   UNL     1      27.620  25.588  27.893  0.00  0.00    +0.000 C 
ATOM      2  C   UNL     1      28.129  24.305  27.189  0.00  0.00    +0.000 C 
ATOM      3  C   UNL     1      27.307  24.069  26.133  0.00  0.00    +0.000 C 
ATOM      4  C   UNL     1      27.394  24.994  25.022  0.00  0.00    +0.000 C 
ATOM      5  C   UNL     1      28.771  25.823  25.066  0.00  0.00    +0.000 C 
ATOM      6  C   UNL     1      29.035  25.780  23.510  0.00  0.00    +0.000 A 
ATOM      7  C   UNL     1      29.218  26.971  22.866  0.00  0.00    +0.000 A 
ATOM      8  C   UNL     1      29.448  26.928  21.509  0.00  0.00    +0.000 A 
ATOM      9  C   UNL     1      29.499  25.753  20.794  0.00  0.00    +0.000 A 
ATOM     10  O   UNL     1      29.738  25.755  19.399  0.00  0.00    +0.000 OA
ATOM     11  C   UNL     1      29.308  24.581  21.486  0.00  0.00    +0.000 A 
ATOM     12  C   UNL     1      29.079  24.625  22.841  0.00  0.00    +0.000 A 
ATOM     13  C   UNL     1      28.881  23.328  23.529  0.00  0.00    +0.000 C 
ATOM     14  C   UNL     1      29.194  23.298  24.944  0.00  0.00    +0.000 C 
ATOM     15  C   UNL     1      29.910  24.630  25.383  0.00  0.00    +0.000 C 
ATOM     16  C   UNL     1      29.669  24.629  27.051  0.00  0.00    +0.000 C 
ATOM     17  C   UNL     1      30.293  23.172  27.316  0.00  0.00    +0.000 C 
ATOM     18  C   UNL     1      29.515  22.064  26.925  0.00  0.00    +0.000 C 
ATOM     19  C   UNL     1      28.164  21.927  27.476  0.00  0.00    +0.000 C 
ATOM     20  C   UNL     1      28.000  23.259  28.418  0.00  0.00    +0.000 C 
ATOM     21  O   UNL     1      26.490  23.217  28.327  0.00  0.00    +0.000 OA
ENDROOT
TORSDOF 0
ENDMDL
MODEL 8
REMARK VINA RESULT:      -6.5     22.590     23.870
REMARK  Name = 
REMARK  0 active torsions:
REMARK  status: ('A' for Active; 'I' for Inactive)
REMARK                            x       y       z     vdW  Elec       q    Type
REMARK                         _______ _______ _______ _____ _____    ______ ____
ROOT
ATOM      1  C   UNL     1      24.599   0.406  15.135  0.00  0.00    +0.000 C 
ATOM      2  C   UNL     1      23.880   1.090  16.324  0.00  0.00    +0.000 C 
ATOM      3  C   UNL     1      24.734   1.069  17.381  0.00  0.00    +0.000 C 
ATOM      4  C   UNL     1      25.899   1.924  17.292  0.00  0.00    +0.000 C 
ATOM      5  C   UNL     1      25.695   3.066  16.180  0.00  0.00    +0.000 C 
ATOM      6  C   UNL     1      26.380   4.223  17.009  0.00  0.00    +0.000 A 
ATOM      7  C   UNL     1      27.414   4.896  16.421  0.00  0.00    +0.000 A 
ATOM      8  C   UNL     1      28.007   5.904  17.149  0.00  0.00    +0.000 A 
ATOM      9  C   UNL     1      27.605   6.249  18.419  0.00  0.00    +0.000 A 
ATOM     10  O   UNL     1      28.243   7.291  19.131  0.00  0.00    +0.000 OA
ATOM     11  C   UNL     1      26.561   5.542  18.967  0.00  0.00    +0.000 A 
ATOM     12  C   UNL     1      25.969   4.536  18.240  0.00  0.00    +0.000 A 
ATOM     13  C   UNL     1      24.850   3.813  18.886  0.00  0.00    +0.000 C 
ATOM     14  C   UNL     1      23.892   3.186  17.997  0.00  0.00    +0.000 C 
ATOM     15  C   UNL     1      24.146   3.627  16.507  0.00  0.00    +0.000 C 
ATOM     16  C   UNL     1      23.360   2.415  15.639  0.00  0.00    +0.000 C 
ATOM     17  C   UNL     1      21.937   2.575  16.368  0.00  0.00    +0.000 C 
ATOM     18  C   UNL     1      21.835   2.081  17.684  0.00  0.00    +0.000 C 
ATOM     19  C   UNL     1      22.152   0.672  17.930  0.00  0.00    +0.000 C 
ATOM     20  C   UNL     1      22.593   0.116  16.451  0.00  0.00    +0.000 C 
ATOM     21  O   UNL     1      23.406  -1.013  17.046  0.00  0.00    +0.000 OA
ENDROOT
TORSDOF 0
ENDMDL
MODEL 9
REMARK VINA RESULT:      -6.5     16.585     19.976
REMARK  Name = 
REMARK  0 active torsions:
REMARK  status: ('A' for Active; 'I' for Inactive)
REMARK                            x       y       z     vdW  Elec       q    Type
REMARK                         _______ _______ _______ _____ _____    ______ ____
ROOT
ATOM      1  C   UNL     1      27.252  22.683  25.600  0.00  0.00    +0.000 C 
ATOM      2  C   UNL     1      28.366  23.710  25.280  0.00  0.00    +0.000 C 
ATOM      3  C   UNL     1      28.630  24.393  26.425  0.00  0.00    +0.000 C 
ATOM      4  C   UNL     1      29.291  23.657  27.482  0.00  0.00    +0.000 C 
ATOM      5  C   UNL     1      29.997  22.331  26.910  0.00  0.00    +0.000 C 
ATOM      6  C   UNL     1      31.299  22.446  27.795  0.00  0.00    +0.000 A 
ATOM      7  C   UNL     1      31.632  21.373  28.574  0.00  0.00    +0.000 A 
ATOM      8  C   UNL     1      32.769  21.480  29.344  0.00  0.00    +0.000 A 
ATOM      9  C   UNL     1      33.564  22.603  29.357  0.00  0.00    +0.000 A 
ATOM     10  O   UNL     1      34.724  22.668  30.164  0.00  0.00    +0.000 OA
ATOM     11  C   UNL     1      33.188  23.655  28.557  0.00  0.00    +0.000 A 
ATOM     12  C   UNL     1      32.052  23.548  27.788  0.00  0.00    +0.000 A 
ATOM     13  C   UNL     1      31.701  24.716  26.948  0.00  0.00    +0.000 C 
ATOM     14  C   UNL     1      30.898  24.443  25.773  0.00  0.00    +0.000 C 
ATOM     15  C   UNL     1      30.775  22.892  25.532  0.00  0.00    +0.000 C 
ATOM     16  C   UNL     1      29.418  22.793  24.539  0.00  0.00    +0.000 C 
ATOM     17  C   UNL     1      29.947  23.814  23.417  0.00  0.00    +0.000 C 
ATOM     18  C   UNL     1      29.947  25.183  23.749  0.00  0.00    +0.000 C 
ATOM     19  C   UNL     1      28.685  25.804  24.159  0.00  0.00    +0.000 C 
ATOM     20  C   UNL     1      27.617  24.559  24.122  0.00  0.00    +0.000 C 
ATOM     21  O   UNL     1      26.691  25.238  25.107  0.00  0.00    +0.000 OA
ENDROOT
TORSDOF 0
ENDMDL
MODEL 10
REMARK VINA RESULT:      -6.4     17.871     19.799
REMARK  Name = 
REMARK  0 active torsions:
REMARK  status: ('A' for Active; 'I' for Inactive)
REMARK                            x       y       z     vdW  Elec       q    Type
REMARK                         _______ _______ _______ _____ _____    ______ ____
ROOT
ATOM      1  C   UNL     1      31.800  26.212  26.883  0.00  0.00    +0.000 C 
ATOM      2  C   UNL     1      31.246  24.923  26.228  0.00  0.00    +0.000 C 
ATOM      3  C   UNL     1      31.440  23.905  27.108  0.00  0.00    +0.000 C 
ATOM      4  C   UNL     1      30.631  23.921  28.309  0.00  0.00    +0.000 C 
ATOM      5  C   UNL     1      29.347  24.871  28.129  0.00  0.00    +0.000 C 
ATOM      6  C   UNL     1      28.338  23.923  28.889  0.00  0.00    +0.000 A 
ATOM      7  C   UNL     1      27.639  24.452  29.937  0.00  0.00    +0.000 A 
ATOM      8  C   UNL     1      26.761  23.621  30.596  0.00  0.00    +0.000 A 
ATOM      9  C   UNL     1      26.566  22.305  30.244  0.00  0.00    +0.000 A 
ATOM     10  O   UNL     1      25.653  21.486  30.949  0.00  0.00    +0.000 OA
ATOM     11  C   UNL     1      27.292  21.818  29.183  0.00  0.00    +0.000 A 
ATOM     12  C   UNL     1      28.169  22.649  28.525  0.00  0.00    +0.000 A 
ATOM     13  C   UNL     1      28.921  22.065  27.391  0.00  0.00    +0.000 C 
ATOM     14  C   UNL     1      29.386  22.996  26.382  0.00  0.00    +0.000 C 
ATOM     15  C   UNL     1      28.767  24.426  26.617  0.00  0.00    +0.000 C 
ATOM     16  C   UNL     1      29.821  25.415  25.753  0.00  0.00    +0.000 C 
ATOM     17  C   UNL     1      29.697  24.627  24.359  0.00  0.00    +0.000 C 
ATOM     18  C   UNL     1      30.351  23.383  24.268  0.00  0.00    +0.000 C 
ATOM     19  C   UNL     1      31.793  23.329  24.525  0.00  0.00    +0.000 C 
ATOM     20  C   UNL     1      32.171  24.881  24.901  0.00  0.00    +0.000 C 
ATOM     21  O   UNL     1      33.401  24.462  25.676  0.00  0.00    +0.000 OA
ENDROOT
TORSDOF 0
ENDMDL
