MODEL 1
REMARK VINA RESULT:      -8.2      0.000      0.000
REMARK  Name = 
REMARK  9 active torsions:
REMARK  status: ('A' for Active; 'I' for Inactive)
REMARK    1  A    between atoms: C_2  and  C_3
REMARK    2  A    between atoms: C_3  and  C_4
REMARK    3  A    between atoms: C_4  and  N_5
REMARK    4  A    between atoms: C_6  and  C_8
REMARK    5  A    between atoms: C_9  and  C_10
REMARK    6  A    between atoms: C_15  and  O_16
REMARK    7  A    between atoms: O_16  and  C_17
REMARK    8  A    between atoms: C_21  and  C_22
REMARK    9  A    between atoms: C_25  and  C_26
REMARK                            x       y       z     vdW  Elec       q    Type
REMARK                         _______ _______ _______ _____ _____    ______ ____
ROOT
ATOM      1  C   UNL     1      36.493   1.196  15.809  0.00  0.00    +0.000 C 
ATOM      2  C   UNL     1      37.417   0.938  14.967  0.00  0.00    +0.000 C 
ATOM      3  N   UNL     1      37.543   2.040  14.081  0.00  0.00    +0.000 NA
ATOM      4  O   UNL     1      36.358   2.608  13.982  0.00  0.00    +0.000 OA
ATOM      5  C   UNL     1      35.920   2.669  15.443  0.00  0.00    +0.000 C 
ENDROOT
BRANCH   2   6
ATOM      6  C   UNL     1      38.224  -0.263  14.898  0.00  0.00    +0.000 A 
ATOM      7  C   UNL     1      39.587  -0.151  14.968  0.00  0.00    +0.000 A 
ATOM      8  C   UNL     1      40.413  -1.271  14.917  0.00  0.00    +0.000 A 
ATOM      9  C   UNL     1      39.894  -2.538  14.794  0.00  0.00    +0.000 A 
ATOM     10  C   UNL     1      38.521  -2.661  14.724  0.00  0.00    +0.000 A 
ATOM     11  C   UNL     1      37.716  -1.544  14.774  0.00  0.00    +0.000 A 
BRANCH  11  12
ATOM     12  O   UNL     1      36.330  -1.659  14.704  0.00  0.00    +0.000 OA
BRANCH  12  13
ATOM     13  C   UNL     1      35.637  -2.873  14.888  0.00  0.00    +0.000 C 
ATOM     14  C   UNL     1      35.227  -3.043  16.332  0.00  0.00    +0.000 C 
ENDBRANCH  12  13
ENDBRANCH  11  12
ENDBRANCH   2   6
BRANCH   5  15
ATOM     15  C   UNL     1      37.097   3.525  16.031  0.00  0.00    +0.000 A 
ATOM     16  C   UNL     1      37.901   4.301  15.293  0.00  0.00    +0.000 A 
ATOM     17  C   UNL     1      38.912   5.050  15.908  0.00  0.00    +0.000 A 
ATOM     18  C   UNL     1      39.089   5.000  17.260  0.00  0.00    +0.000 A 
ATOM     19  C   UNL     1      38.263   4.200  18.037  0.00  0.00    +0.000 A 
ATOM     20  C   UNL     1      37.257   3.463  17.369  0.00  0.00    +0.000 A 
BRANCH  18  21
ATOM     21  C   UNL     1      40.137   5.787  17.915  0.00  0.00    +0.000 A 
ATOM     22  C   UNL     1      40.142   6.091  19.255  0.00  0.00    +0.000 A 
ATOM     23  C   UNL     1      41.151   6.836  19.853  0.00  0.00    +0.000 A 
ATOM     24  C   UNL     1      42.178   7.283  19.076  0.00  0.00    +0.000 A 
ATOM     25  C   UNL     1      42.201   6.996  17.735  0.00  0.00    +0.000 A 
ATOM     26  C   UNL     1      41.178   6.244  17.145  0.00  0.00    +0.000 A 
ENDBRANCH  18  21
ENDBRANCH   5  15
BRANCH   1  28
ATOM     27  N   UNL     1      36.675  -0.058  17.986  0.00  0.00    +0.000 NA
ATOM     28  C   UNL     1      35.920   0.470  16.934  0.00  0.00    +0.000 C 
ATOM     29  O   UNL     1      34.681   0.316  16.947  0.00  0.00    +0.000 OA
BRANCH  27  30
ATOM     30  C   UNL     1      36.376  -0.767  19.134  0.00  0.00    +0.000 C 
BRANCH  30  31
ATOM     31  C   UNL     1      37.194  -1.926  19.481  0.00  0.00    +0.000 C 
BRANCH  31  33
ATOM     32  C   UNL     1      38.594  -3.644  18.351  0.00  0.00    +0.000 C 
ATOM     33  C   UNL     1      38.318  -2.161  18.553  0.00  0.00    +0.000 C 
ENDBRANCH  31  33
ENDBRANCH  30  31
ENDBRANCH  27  30
ENDBRANCH   1  28
TORSDOF 9
ENDMDL
MODEL 2
REMARK VINA RESULT:      -8.0      1.078      2.364
REMARK  Name = 
REMARK  9 active torsions:
REMARK  status: ('A' for Active; 'I' for Inactive)
REMARK    1  A    between atoms: C_2  and  C_3
REMARK    2  A    between atoms: C_3  and  C_4
REMARK    3  A    between atoms: C_4  and  N_5
REMARK    4  A    between atoms: C_6  and  C_8
REMARK    5  A    between atoms: C_9  and  C_10
REMARK    6  A    between atoms: C_15  and  O_16
REMARK    7  A    between atoms: O_16  and  C_17
REMARK    8  A    between atoms: C_21  and  C_22
REMARK    9  A    between atoms: C_25  and  C_26
REMARK                            x       y       z     vdW  Elec       q    Type
REMARK                         _______ _______ _______ _____ _____    ______ ____
ROOT
ATOM      1  C   UNL     1      35.983   1.043  15.872  0.00  0.00    +0.000 C 
ATOM      2  C   UNL     1      36.802   0.862  14.910  0.00  0.00    +0.000 C 
ATOM      3  N   UNL     1      36.771   2.005  14.069  0.00  0.00    +0.000 NA
ATOM      4  O   UNL     1      35.563   2.524  14.146  0.00  0.00    +0.000 OA
ATOM      5  C   UNL     1      35.311   2.503  15.651  0.00  0.00    +0.000 C 
ENDROOT
BRANCH   2   6
ATOM      6  C   UNL     1      37.640  -0.299  14.683  0.00  0.00    +0.000 A 
ATOM      7  C   UNL     1      37.046  -1.512  14.458  0.00  0.00    +0.000 A 
ATOM      8  C   UNL     1      37.800  -2.659  14.223  0.00  0.00    +0.000 A 
ATOM      9  C   UNL     1      39.174  -2.621  14.208  0.00  0.00    +0.000 A 
ATOM     10  C   UNL     1      39.782  -1.402  14.432  0.00  0.00    +0.000 A 
ATOM     11  C   UNL     1      39.023  -0.275  14.664  0.00  0.00    +0.000 A 
BRANCH  11  12
ATOM     12  O   UNL     1      39.628   0.958  14.891  0.00  0.00    +0.000 OA
BRANCH  12  13
ATOM     13  C   UNL     1      40.508   1.576  13.980  0.00  0.00    +0.000 C 
ATOM     14  C   UNL     1      40.135   3.025  13.773  0.00  0.00    +0.000 C 
ENDBRANCH  12  13
ENDBRANCH  11  12
ENDBRANCH   2   6
BRANCH   5  15
ATOM     15  C   UNL     1      36.520   3.385  16.128  0.00  0.00    +0.000 A 
ATOM     16  C   UNL     1      37.060   4.371  15.402  0.00  0.00    +0.000 A 
ATOM     17  C   UNL     1      38.122   5.123  15.918  0.00  0.00    +0.000 A 
ATOM     18  C   UNL     1      38.617   4.861  17.162  0.00  0.00    +0.000 A 
ATOM     19  C   UNL     1      38.067   3.842  17.926  0.00  0.00    +0.000 A 
ATOM     20  C   UNL     1      36.996   3.112  17.360  0.00  0.00    +0.000 A 
BRANCH  18  21
ATOM     21  C   UNL     1      39.722   5.648  17.718  0.00  0.00    +0.000 A 
ATOM     22  C   UNL     1      40.771   6.128  16.972  0.00  0.00    +0.000 A 
ATOM     23  C   UNL     1      41.805   6.876  17.522  0.00  0.00    +0.000 A 
ATOM     24  C   UNL     1      41.775   7.143  18.858  0.00  0.00    +0.000 A 
ATOM     25  C   UNL     1      40.741   6.677  19.630  0.00  0.00    +0.000 A 
ATOM     26  C   UNL     1      39.706   5.925  19.063  0.00  0.00    +0.000 A 
ENDBRANCH  18  21
ENDBRANCH   5  15
BRANCH   1  28
ATOM     27  N   UNL     1      36.468  -0.168  18.027  0.00  0.00    +0.000 NA
ATOM     28  C   UNL     1      35.586   0.245  17.023  0.00  0.00    +0.000 C 
ATOM     29  O   UNL     1      34.383  -0.084  17.109  0.00  0.00    +0.000 OA
BRANCH  27  30
ATOM     30  C   UNL     1      36.340  -0.911  19.185  0.00  0.00    +0.000 C 
BRANCH  30  31
ATOM     31  C   UNL     1      37.289  -1.991  19.440  0.00  0.00    +0.000 C 
BRANCH  31  33
ATOM     32  C   UNL     1      38.498  -3.543  17.917  0.00  0.00    +0.000 C 
ATOM     33  C   UNL     1      38.343  -2.113  18.413  0.00  0.00    +0.000 C 
ENDBRANCH  31  33
ENDBRANCH  30  31
ENDBRANCH  27  30
ENDBRANCH   1  28
TORSDOF 9
ENDMDL
MODEL 3
REMARK VINA RESULT:      -7.9      4.111      7.560
REMARK  Name = 
REMARK  9 active torsions:
REMARK  status: ('A' for Active; 'I' for Inactive)
REMARK    1  A    between atoms: C_2  and  C_3
REMARK    2  A    between atoms: C_3  and  C_4
REMARK    3  A    between atoms: C_4  and  N_5
REMARK    4  A    between atoms: C_6  and  C_8
REMARK    5  A    between atoms: C_9  and  C_10
REMARK    6  A    between atoms: C_15  and  O_16
REMARK    7  A    between atoms: O_16  and  C_17
REMARK    8  A    between atoms: C_21  and  C_22
REMARK    9  A    between atoms: C_25  and  C_26
REMARK                            x       y       z     vdW  Elec       q    Type
REMARK                         _______ _______ _______ _____ _____    ______ ____
ROOT
ATOM      1  C   UNL     1      36.529  -1.850  16.250  0.00  0.00    +0.000 C 
ATOM      2  C   UNL     1      36.968  -0.657  16.150  0.00  0.00    +0.000 C 
ATOM      3  N   UNL     1      38.350  -0.654  16.476  0.00  0.00    +0.000 NA
ATOM      4  O   UNL     1      38.558  -1.628  17.338  0.00  0.00    +0.000 OA
ATOM      5  C   UNL     1      37.782  -2.777  16.701  0.00  0.00    +0.000 C 
ENDROOT
BRANCH   2   6
ATOM      6  C   UNL     1      36.215   0.522  15.770  0.00  0.00    +0.000 A 
ATOM      7  C   UNL     1      35.456   1.158  16.715  0.00  0.00    +0.000 A 
ATOM      8  C   UNL     1      34.721   2.301  16.411  0.00  0.00    +0.000 A 
ATOM      9  C   UNL     1      34.726   2.838  15.145  0.00  0.00    +0.000 A 
ATOM     10  C   UNL     1      35.490   2.205  14.186  0.00  0.00    +0.000 A 
ATOM     11  C   UNL     1      36.212   1.074  14.501  0.00  0.00    +0.000 A 
BRANCH  11  12
ATOM     12  O   UNL     1      36.984   0.429  13.540  0.00  0.00    +0.000 OA
BRANCH  12  13
ATOM     13  C   UNL     1      37.983   1.072  12.781  0.00  0.00    +0.000 C 
ATOM     14  C   UNL     1      39.359   0.688  13.272  0.00  0.00    +0.000 C 
ENDBRANCH  12  13
ENDBRANCH  11  12
ENDBRANCH   2   6
BRANCH   5  15
ATOM     15  C   UNL     1      38.520  -2.853  15.318  0.00  0.00    +0.000 A 
ATOM     16  C   UNL     1      37.894  -2.957  14.139  0.00  0.00    +0.000 A 
ATOM     17  C   UNL     1      38.634  -2.994  12.951  0.00  0.00    +0.000 A 
ATOM     18  C   UNL     1      39.997  -2.924  12.980  0.00  0.00    +0.000 A 
ATOM     19  C   UNL     1      40.659  -2.818  14.194  0.00  0.00    +0.000 A 
ATOM     20  C   UNL     1      39.867  -2.784  15.365  0.00  0.00    +0.000 A 
BRANCH  18  21
ATOM     21  C   UNL     1      40.782  -2.952  11.743  0.00  0.00    +0.000 A 
ATOM     22  C   UNL     1      42.077  -3.405  11.667  0.00  0.00    +0.000 A 
ATOM     23  C   UNL     1      42.799  -3.425  10.480  0.00  0.00    +0.000 A 
ATOM     24  C   UNL     1      42.194  -2.976   9.344  0.00  0.00    +0.000 A 
ATOM     25  C   UNL     1      40.902  -2.517   9.387  0.00  0.00    +0.000 A 
ATOM     26  C   UNL     1      40.186  -2.503  10.590  0.00  0.00    +0.000 A 
ENDBRANCH  18  21
ENDBRANCH   5  15
BRANCH   1  28
ATOM     27  N   UNL     1      34.131  -2.274  16.896  0.00  0.00    +0.000 NA
ATOM     28  C   UNL     1      35.226  -2.467  16.047  0.00  0.00    +0.000 C 
ATOM     29  O   UNL     1      35.091  -3.212  15.053  0.00  0.00    +0.000 OA
BRANCH  27  30
ATOM     30  C   UNL     1      32.829  -2.735  16.920  0.00  0.00    +0.000 C 
BRANCH  30  31
ATOM     31  C   UNL     1      31.855  -2.055  17.768  0.00  0.00    +0.000 C 
BRANCH  31  33
ATOM     32  C   UNL     1      29.990  -3.158  18.992  0.00  0.00    +0.000 C 
ATOM     33  C   UNL     1      30.488  -2.604  17.665  0.00  0.00    +0.000 C 
ENDBRANCH  31  33
ENDBRANCH  30  31
ENDBRANCH  27  30
ENDBRANCH   1  28
TORSDOF 9
ENDMDL
MODEL 4
REMARK VINA RESULT:      -7.8      1.676      2.405
REMARK  Name = 
REMARK  9 active torsions:
REMARK  status: ('A' for Active; 'I' for Inactive)
REMARK    1  A    between atoms: C_2  and  C_3
REMARK    2  A    between atoms: C_3  and  C_4
REMARK    3  A    between atoms: C_4  and  N_5
REMARK    4  A    between atoms: C_6  and  C_8
REMARK    5  A    between atoms: C_9  and  C_10
REMARK    6  A    between atoms: C_15  and  O_16
REMARK    7  A    between atoms: O_16  and  C_17
REMARK    8  A    between atoms: C_21  and  C_22
REMARK    9  A    between atoms: C_25  and  C_26
REMARK                            x       y       z     vdW  Elec       q    Type
REMARK                         _______ _______ _______ _____ _____    ______ ____
ROOT
ATOM      1  C   UNL     1      36.835   2.590  15.192  0.00  0.00    +0.000 C 
ATOM      2  C   UNL     1      37.766   2.405  14.340  0.00  0.00    +0.000 C 
ATOM      3  N   UNL     1      38.062   3.647  13.717  0.00  0.00    +0.000 NA
ATOM      4  O   UNL     1      36.956   4.363  13.713  0.00  0.00    +0.000 OA
ATOM      5  C   UNL     1      36.452   4.165  15.140  0.00  0.00    +0.000 C 
ENDROOT
BRANCH   2   6
ATOM      6  C   UNL     1      38.435   1.157  14.032  0.00  0.00    +0.000 A 
ATOM      7  C   UNL     1      39.586   0.839  14.701  0.00  0.00    +0.000 A 
ATOM      8  C   UNL     1      40.266  -0.351  14.456  0.00  0.00    +0.000 A 
ATOM      9  C   UNL     1      39.808  -1.258  13.529  0.00  0.00    +0.000 A 
ATOM     10  C   UNL     1      38.647  -0.947  12.850  0.00  0.00    +0.000 A 
ATOM     11  C   UNL     1      37.986   0.235  13.103  0.00  0.00    +0.000 A 
BRANCH  11  12
ATOM     12  O   UNL     1      36.814   0.557  12.423  0.00  0.00    +0.000 OA
BRANCH  12  13
ATOM     13  C   UNL     1      36.751   0.760  11.029  0.00  0.00    +0.000 C 
ATOM     14  C   UNL     1      37.722   1.834  10.599  0.00  0.00    +0.000 C 
ENDBRANCH  12  13
ENDBRANCH  11  12
ENDBRANCH   2   6
BRANCH   5  15
ATOM     15  C   UNL     1      37.687   4.727  15.931  0.00  0.00    +0.000 A 
ATOM     16  C   UNL     1      38.558   5.612  15.431  0.00  0.00    +0.000 A 
ATOM     17  C   UNL     1      39.617   6.077  16.218  0.00  0.00    +0.000 A 
ATOM     18  C   UNL     1      39.775   5.637  17.500  0.00  0.00    +0.000 A 
ATOM     19  C   UNL     1      38.880   4.719  18.032  0.00  0.00    +0.000 A 
ATOM     20  C   UNL     1      37.827   4.280  17.196  0.00  0.00    +0.000 A 
BRANCH  18  21
ATOM     21  C   UNL     1      40.875   6.123  18.338  0.00  0.00    +0.000 A 
ATOM     22  C   UNL     1      42.111   6.473  17.852  0.00  0.00    +0.000 A 
ATOM     23  C   UNL     1      43.136   6.936  18.667  0.00  0.00    +0.000 A 
ATOM     24  C   UNL     1      42.903   7.048  20.005  0.00  0.00    +0.000 A 
ATOM     25  C   UNL     1      41.678   6.707  20.521  0.00  0.00    +0.000 A 
ATOM     26  C   UNL     1      40.655   6.241  19.689  0.00  0.00    +0.000 A 
ENDBRANCH  18  21
ENDBRANCH   5  15
BRANCH   1  28
ATOM     27  N   UNL     1      36.754   0.769  16.931  0.00  0.00    +0.000 NA
ATOM     28  C   UNL     1      36.126   1.717  16.117  0.00  0.00    +0.000 C 
ATOM     29  O   UNL     1      34.883   1.830  16.177  0.00  0.00    +0.000 OA
BRANCH  27  30
ATOM     30  C   UNL     1      36.315  -0.153  17.863  0.00  0.00    +0.000 C 
BRANCH  30  31
ATOM     31  C   UNL     1      37.083  -1.380  18.057  0.00  0.00    +0.000 C 
BRANCH  31  33
ATOM     32  C   UNL     1      38.864  -2.876  17.175  0.00  0.00    +0.000 C 
ATOM     33  C   UNL     1      37.813  -1.823  16.853  0.00  0.00    +0.000 C 
ENDBRANCH  31  33
ENDBRANCH  30  31
ENDBRANCH  27  30
ENDBRANCH   1  28
TORSDOF 9
ENDMDL
MODEL 5
REMARK VINA RESULT:      -7.5      4.188      7.576
REMARK  Name = 
REMARK  9 active torsions:
REMARK  status: ('A' for Active; 'I' for Inactive)
REMARK    1  A    between atoms: C_2  and  C_3
REMARK    2  A    between atoms: C_3  and  C_4
REMARK    3  A    between atoms: C_4  and  N_5
REMARK    4  A    between atoms: C_6  and  C_8
REMARK    5  A    between atoms: C_9  and  C_10
REMARK    6  A    between atoms: C_15  and  O_16
REMARK    7  A    between atoms: O_16  and  C_17
REMARK    8  A    between atoms: C_21  and  C_22
REMARK    9  A    between atoms: C_25  and  C_26
REMARK                            x       y       z     vdW  Elec       q    Type
REMARK                         _______ _______ _______ _____ _____    ______ ____
ROOT
ATOM      1  C   UNL     1      36.608  -1.990  16.175  0.00  0.00    +0.000 C 
ATOM      2  C   UNL     1      37.018  -0.784  16.119  0.00  0.00    +0.000 C 
ATOM      3  N   UNL     1      38.399  -0.759  16.448  0.00  0.00    +0.000 NA
ATOM      4  O   UNL     1      38.629  -1.757  17.276  0.00  0.00    +0.000 OA
ATOM      5  C   UNL     1      37.883  -2.902  16.597  0.00  0.00    +0.000 C 
ENDROOT
BRANCH   2   6
ATOM      6  C   UNL     1      36.238   0.389  15.779  0.00  0.00    +0.000 A 
ATOM      7  C   UNL     1      35.528   1.022  16.763  0.00  0.00    +0.000 A 
ATOM      8  C   UNL     1      34.769   2.159  16.498  0.00  0.00    +0.000 A 
ATOM      9  C   UNL     1      34.701   2.694  15.233  0.00  0.00    +0.000 A 
ATOM     10  C   UNL     1      35.415   2.064  14.234  0.00  0.00    +0.000 A 
ATOM     11  C   UNL     1      36.161   0.939  14.511  0.00  0.00    +0.000 A 
BRANCH  11  12
ATOM     12  O   UNL     1      36.883   0.297  13.509  0.00  0.00    +0.000 OA
BRANCH  12  13
ATOM     13  C   UNL     1      38.094   0.790  12.982  0.00  0.00    +0.000 C 
ATOM     14  C   UNL     1      38.256   0.381  11.537  0.00  0.00    +0.000 C 
ENDBRANCH  12  13
ENDBRANCH  11  12
ENDBRANCH   2   6
BRANCH   5  15
ATOM     15  C   UNL     1      38.625  -2.911  15.213  0.00  0.00    +0.000 A 
ATOM     16  C   UNL     1      38.004  -2.997  14.030  0.00  0.00    +0.000 A 
ATOM     17  C   UNL     1      38.747  -2.973  12.844  0.00  0.00    +0.000 A 
ATOM     18  C   UNL     1      40.107  -2.862  12.878  0.00  0.00    +0.000 A 
ATOM     19  C   UNL     1      40.763  -2.772  14.097  0.00  0.00    +0.000 A 
ATOM     20  C   UNL     1      39.969  -2.801  15.266  0.00  0.00    +0.000 A 
BRANCH  18  21
ATOM     21  C   UNL     1      40.894  -2.825  11.643  0.00  0.00    +0.000 A 
ATOM     22  C   UNL     1      42.266  -2.891  11.607  0.00  0.00    +0.000 A 
ATOM     23  C   UNL     1      42.989  -2.859  10.420  0.00  0.00    +0.000 A 
ATOM     24  C   UNL     1      42.307  -2.759   9.245  0.00  0.00    +0.000 A 
ATOM     25  C   UNL     1      40.937  -2.691   9.248  0.00  0.00    +0.000 A 
ATOM     26  C   UNL     1      40.220  -2.724  10.450  0.00  0.00    +0.000 A 
ENDBRANCH  18  21
ENDBRANCH   5  15
BRANCH   1  28
ATOM     27  N   UNL     1      35.089  -3.578  14.944  0.00  0.00    +0.000 NA
ATOM     28  C   UNL     1      35.321  -2.631  15.947  0.00  0.00    +0.000 C 
ATOM     29  O   UNL     1      34.376  -2.307  16.697  0.00  0.00    +0.000 OA
BRANCH  27  30
ATOM     30  C   UNL     1      33.989  -4.308  14.535  0.00  0.00    +0.000 C 
BRANCH  30  31
ATOM     31  C   UNL     1      33.754  -5.622  15.126  0.00  0.00    +0.000 C 
BRANCH  31  33
ATOM     32  C   UNL     1      33.564  -8.077  14.769  0.00  0.00    +0.000 C 
ATOM     33  C   UNL     1      34.065  -6.747  14.223  0.00  0.00    +0.000 C 
ENDBRANCH  31  33
ENDBRANCH  30  31
ENDBRANCH  27  30
ENDBRANCH   1  28
TORSDOF 9
ENDMDL
MODEL 6
REMARK VINA RESULT:      -7.5      2.398      6.540
REMARK  Name = 
REMARK  9 active torsions:
REMARK  status: ('A' for Active; 'I' for Inactive)
REMARK    1  A    between atoms: C_2  and  C_3
REMARK    2  A    between atoms: C_3  and  C_4
REMARK    3  A    between atoms: C_4  and  N_5
REMARK    4  A    between atoms: C_6  and  C_8
REMARK    5  A    between atoms: C_9  and  C_10
REMARK    6  A    between atoms: C_15  and  O_16
REMARK    7  A    between atoms: O_16  and  C_17
REMARK    8  A    between atoms: C_21  and  C_22
REMARK    9  A    between atoms: C_25  and  C_26
REMARK                            x       y       z     vdW  Elec       q    Type
REMARK                         _______ _______ _______ _____ _____    ______ ____
ROOT
ATOM      1  C   UNL     1      37.386   1.283  14.442  0.00  0.00    +0.000 C 
ATOM      2  C   UNL     1      37.060   0.158  14.946  0.00  0.00    +0.000 C 
ATOM      3  N   UNL     1      37.207  -0.843  13.950  0.00  0.00    +0.000 NA
ATOM      4  O   UNL     1      36.992  -0.276  12.780  0.00  0.00    +0.000 OA
ATOM      5  C   UNL     1      37.812   1.005  12.901  0.00  0.00    +0.000 C 
ENDROOT
BRANCH   2   6
ATOM      6  C   UNL     1      36.612  -0.096  16.300  0.00  0.00    +0.000 A 
ATOM      7  C   UNL     1      35.394   0.386  16.698  0.00  0.00    +0.000 A 
ATOM      8  C   UNL     1      34.907   0.164  17.984  0.00  0.00    +0.000 A 
ATOM      9  C   UNL     1      35.631  -0.551  18.909  0.00  0.00    +0.000 A 
ATOM     10  C   UNL     1      36.860  -1.042  18.517  0.00  0.00    +0.000 A 
ATOM     11  C   UNL     1      37.329  -0.814  17.242  0.00  0.00    +0.000 A 
BRANCH  11  12
ATOM     12  O   UNL     1      38.567  -1.306  16.838  0.00  0.00    +0.000 OA
BRANCH  12  13
ATOM     13  C   UNL     1      38.919  -2.671  16.889  0.00  0.00    +0.000 C 
ATOM     14  C   UNL     1      39.828  -3.033  15.738  0.00  0.00    +0.000 C 
ENDBRANCH  12  13
ENDBRANCH  11  12
ENDBRANCH   2   6
BRANCH   5  15
ATOM     15  C   UNL     1      39.229   0.382  13.165  0.00  0.00    +0.000 A 
ATOM     16  C   UNL     1      40.061   0.794  14.129  0.00  0.00    +0.000 A 
ATOM     17  C   UNL     1      41.298   0.162  14.307  0.00  0.00    +0.000 A 
ATOM     18  C   UNL     1      41.669  -0.876  13.504  0.00  0.00    +0.000 A 
ATOM     19  C   UNL     1      40.817  -1.313  12.500  0.00  0.00    +0.000 A 
ATOM     20  C   UNL     1      39.579  -0.643  12.361  0.00  0.00    +0.000 A 
BRANCH  18  21
ATOM     21  C   UNL     1      42.956  -1.552  13.686  0.00  0.00    +0.000 A 
ATOM     22  C   UNL     1      43.847  -1.245  14.686  0.00  0.00    +0.000 A 
ATOM     23  C   UNL     1      45.061  -1.904  14.840  0.00  0.00    +0.000 A 
ATOM     24  C   UNL     1      45.378  -2.896  13.962  0.00  0.00    +0.000 A 
ATOM     25  C   UNL     1      44.509  -3.226  12.953  0.00  0.00    +0.000 A 
ATOM     26  C   UNL     1      43.290  -2.554  12.809  0.00  0.00    +0.000 A 
ENDBRANCH  18  21
ENDBRANCH   5  15
BRANCH   1  28
ATOM     27  N   UNL     1      38.497   3.144  15.727  0.00  0.00    +0.000 NA
ATOM     28  C   UNL     1      37.440   2.643  14.959  0.00  0.00    +0.000 C 
ATOM     29  O   UNL     1      36.480   3.398  14.696  0.00  0.00    +0.000 OA
BRANCH  27  30
ATOM     30  C   UNL     1      38.774   4.361  16.320  0.00  0.00    +0.000 C 
BRANCH  30  31
ATOM     31  C   UNL     1      38.251   4.631  17.656  0.00  0.00    +0.000 C 
BRANCH  31  33
ATOM     32  C   UNL     1      38.906   6.643  18.964  0.00  0.00    +0.000 C 
ATOM     33  C   UNL     1      39.246   5.210  18.580  0.00  0.00    +0.000 C 
ENDBRANCH  31  33
ENDBRANCH  30  31
ENDBRANCH  27  30
ENDBRANCH   1  28
TORSDOF 9
ENDMDL
MODEL 7
REMARK VINA RESULT:      -7.3     24.528     27.459
REMARK  Name = 
REMARK  9 active torsions:
REMARK  status: ('A' for Active; 'I' for Inactive)
REMARK    1  A    between atoms: C_2  and  C_3
REMARK    2  A    between atoms: C_3  and  C_4
REMARK    3  A    between atoms: C_4  and  N_5
REMARK    4  A    between atoms: C_6  and  C_8
REMARK    5  A    between atoms: C_9  and  C_10
REMARK    6  A    between atoms: C_15  and  O_16
REMARK    7  A    between atoms: O_16  and  C_17
REMARK    8  A    between atoms: C_21  and  C_22
REMARK    9  A    between atoms: C_25  and  C_26
REMARK                            x       y       z     vdW  Elec       q    Type
REMARK                         _______ _______ _______ _____ _____    ______ ____
ROOT
ATOM      1  C   UNL     1      27.132  15.339  35.599  0.00  0.00    +0.000 C 
ATOM      2  C   UNL     1      27.972  15.547  34.662  0.00  0.00    +0.000 C 
ATOM      3  N   UNL     1      27.362  15.208  33.425  0.00  0.00    +0.000 NA
ATOM      4  O   UNL     1      26.485  14.254  33.662  0.00  0.00    +0.000 OA
ATOM      5  C   UNL     1      25.774  14.787  34.903  0.00  0.00    +0.000 C 
ENDROOT
BRANCH   2   6
ATOM      6  C   UNL     1      29.325  16.047  34.796  0.00  0.00    +0.000 A 
ATOM      7  C   UNL     1      30.326  15.172  35.121  0.00  0.00    +0.000 A 
ATOM      8  C   UNL     1      31.647  15.593  35.253  0.00  0.00    +0.000 A 
ATOM      9  C   UNL     1      32.001  16.908  35.063  0.00  0.00    +0.000 A 
ATOM     10  C   UNL     1      30.999  17.798  34.735  0.00  0.00    +0.000 A 
ATOM     11  C   UNL     1      29.696  17.367  34.608  0.00  0.00    +0.000 A 
BRANCH  11  12
ATOM     12  O   UNL     1      28.679  18.258  34.277  0.00  0.00    +0.000 OA
BRANCH  12  13
ATOM     13  C   UNL     1      28.732  19.640  34.550  0.00  0.00    +0.000 C 
ATOM     14  C   UNL     1      27.662  20.380  33.782  0.00  0.00    +0.000 C 
ENDBRANCH  12  13
ENDBRANCH  11  12
ENDBRANCH   2   6
BRANCH   5  15
ATOM     15  C   UNL     1      25.240  16.149  34.331  0.00  0.00    +0.000 A 
ATOM     16  C   UNL     1      24.827  16.321  33.070  0.00  0.00    +0.000 A 
ATOM     17  C   UNL     1      24.343  17.566  32.653  0.00  0.00    +0.000 A 
ATOM     18  C   UNL     1      24.286  18.616  33.523  0.00  0.00    +0.000 A 
ATOM     19  C   UNL     1      24.713  18.452  34.833  0.00  0.00    +0.000 A 
ATOM     20  C   UNL     1      25.192  17.175  35.205  0.00  0.00    +0.000 A 
BRANCH  18  21
ATOM     21  C   UNL     1      23.773  19.922  33.101  0.00  0.00    +0.000 A 
ATOM     22  C   UNL     1      24.050  21.100  33.751  0.00  0.00    +0.000 A 
ATOM     23  C   UNL     1      23.553  22.327  33.328  0.00  0.00    +0.000 A 
ATOM     24  C   UNL     1      22.758  22.360  32.221  0.00  0.00    +0.000 A 
ATOM     25  C   UNL     1      22.463  21.200  31.550  0.00  0.00    +0.000 A 
ATOM     26  C   UNL     1      22.970  19.971  31.987  0.00  0.00    +0.000 A 
ENDBRANCH  18  21
ENDBRANCH   5  15
BRANCH   1  28
ATOM     27  N   UNL     1      26.388  14.756  37.934  0.00  0.00    +0.000 NA
ATOM     28  C   UNL     1      27.174  15.498  37.046  0.00  0.00    +0.000 C 
ATOM     29  O   UNL     1      27.961  16.350  37.509  0.00  0.00    +0.000 OA
BRANCH  27  30
ATOM     30  C   UNL     1      26.247  14.722  39.309  0.00  0.00    +0.000 C 
BRANCH  30  31
ATOM     31  C   UNL     1      25.465  15.767  39.964  0.00  0.00    +0.000 C 
BRANCH  31  33
ATOM     32  C   UNL     1      24.113  17.475  38.764  0.00  0.00    +0.000 C 
ATOM     33  C   UNL     1      24.178  16.053  39.301  0.00  0.00    +0.000 C 
ENDBRANCH  31  33
ENDBRANCH  30  31
ENDBRANCH  27  30
ENDBRANCH   1  28
TORSDOF 9
ENDMDL
MODEL 8
REMARK VINA RESULT:      -6.9      1.642      3.023
REMARK  Name = 
REMARK  9 active torsions:
REMARK  status: ('A' for Active; 'I' for Inactive)
REMARK    1  A    between atoms: C_2  and  C_3
REMARK    2  A    between atoms: C_3  and  C_4
REMARK    3  A    between atoms: C_4  and  N_5
REMARK    4  A    between atoms: C_6  and  C_8
REMARK    5  A    between atoms: C_9  and  C_10
REMARK    6  A    between atoms: C_15  and  O_16
REMARK    7  A    between atoms: O_16  and  C_17
REMARK    8  A    between atoms: C_21  and  C_22
REMARK    9  A    between atoms: C_25  and  C_26
REMARK                            x       y       z     vdW  Elec       q    Type
REMARK                         _______ _______ _______ _____ _____    ______ ____
ROOT
ATOM      1  C   UNL     1      37.237   1.003  15.325  0.00  0.00    +0.000 C 
ATOM      2  C   UNL     1      38.320   0.893  14.661  0.00  0.00    +0.000 C 
ATOM      3  N   UNL     1      38.472   2.048  13.849  0.00  0.00    +0.000 NA
ATOM      4  O   UNL     1      37.266   2.487  13.552  0.00  0.00    +0.000 OA
ATOM      5  C   UNL     1      36.569   2.422  14.908  0.00  0.00    +0.000 C 
ENDROOT
BRANCH   2   6
ATOM      6  C   UNL     1      39.263  -0.207  14.702  0.00  0.00    +0.000 A 
ATOM      7  C   UNL     1      38.827  -1.440  15.106  0.00  0.00    +0.000 A 
ATOM      8  C   UNL     1      39.684  -2.536  15.156  0.00  0.00    +0.000 A 
ATOM      9  C   UNL     1      41.008  -2.425  14.800  0.00  0.00    +0.000 A 
ATOM     10  C   UNL     1      41.457  -1.186  14.389  0.00  0.00    +0.000 A 
ATOM     11  C   UNL     1      40.597  -0.110  14.346  0.00  0.00    +0.000 A 
BRANCH  11  12
ATOM     12  O   UNL     1      41.041   1.143  13.934  0.00  0.00    +0.000 OA
BRANCH  12  13
ATOM     13  C   UNL     1      41.802   1.356  12.766  0.00  0.00    +0.000 C 
ATOM     14  C   UNL     1      42.205   2.807  12.646  0.00  0.00    +0.000 C 
ENDBRANCH  12  13
ENDBRANCH  11  12
ENDBRANCH   2   6
BRANCH   5  15
ATOM     15  C   UNL     1      37.513   3.369  15.731  0.00  0.00    +0.000 A 
ATOM     16  C   UNL     1      38.462   4.139  15.185  0.00  0.00    +0.000 A 
ATOM     17  C   UNL     1      39.242   4.973  15.995  0.00  0.00    +0.000 A 
ATOM     18  C   UNL     1      39.045   5.012  17.345  0.00  0.00    +0.000 A 
ATOM     19  C   UNL     1      38.065   4.219  17.924  0.00  0.00    +0.000 A 
ATOM     20  C   UNL     1      37.304   3.394  17.064  0.00  0.00    +0.000 A 
BRANCH  18  21
ATOM     21  C   UNL     1      39.848   5.888  18.202  0.00  0.00    +0.000 A 
ATOM     22  C   UNL     1      39.432   6.354  19.425  0.00  0.00    +0.000 A 
ATOM     23  C   UNL     1      40.215   7.181  20.221  0.00  0.00    +0.000 A 
ATOM     24  C   UNL     1      41.448   7.543  19.767  0.00  0.00    +0.000 A 
ATOM     25  C   UNL     1      41.892   7.094  18.549  0.00  0.00    +0.000 A 
ATOM     26  C   UNL     1      41.093   6.262  17.758  0.00  0.00    +0.000 A 
ENDBRANCH  18  21
ENDBRANCH   5  15
BRANCH   1  28
ATOM     27  N   UNL     1      35.585  -0.787  15.970  0.00  0.00    +0.000 NA
ATOM     28  C   UNL     1      36.561   0.159  16.301  0.00  0.00    +0.000 C 
ATOM     29  O   UNL     1      36.880   0.299  17.501  0.00  0.00    +0.000 OA
BRANCH  27  30
ATOM     30  C   UNL     1      34.817  -1.681  16.692  0.00  0.00    +0.000 C 
BRANCH  30  31
ATOM     31  C   UNL     1      34.566  -3.006  16.133  0.00  0.00    +0.000 C 
BRANCH  31  33
ATOM     32  C   UNL     1      36.487  -4.409  15.406  0.00  0.00    +0.000 C 
ATOM     33  C   UNL     1      35.458  -3.359  15.011  0.00  0.00    +0.000 C 
ENDBRANCH  31  33
ENDBRANCH  30  31
ENDBRANCH  27  30
ENDBRANCH   1  28
TORSDOF 9
ENDMDL
MODEL 9
REMARK VINA RESULT:      -6.9      2.522      7.765
REMARK  Name = 
REMARK  9 active torsions:
REMARK  status: ('A' for Active; 'I' for Inactive)
REMARK    1  A    between atoms: C_2  and  C_3
REMARK    2  A    between atoms: C_3  and  C_4
REMARK    3  A    between atoms: C_4  and  N_5
REMARK    4  A    between atoms: C_6  and  C_8
REMARK    5  A    between atoms: C_9  and  C_10
REMARK    6  A    between atoms: C_15  and  O_16
REMARK    7  A    between atoms: O_16  and  C_17
REMARK    8  A    between atoms: C_21  and  C_22
REMARK    9  A    between atoms: C_25  and  C_26
REMARK                            x       y       z     vdW  Elec       q    Type
REMARK                         _______ _______ _______ _____ _____    ______ ____
ROOT
ATOM      1  C   UNL     1      38.791   3.737  13.128  0.00  0.00    +0.000 C 
ATOM      2  C   UNL     1      37.621   3.829  12.628  0.00  0.00    +0.000 C 
ATOM      3  N   UNL     1      37.481   2.841  11.619  0.00  0.00    +0.000 NA
ATOM      4  O   UNL     1      38.674   2.628  11.102  0.00  0.00    +0.000 OA
ATOM      5  C   UNL     1      39.540   2.524  12.355  0.00  0.00    +0.000 C 
ENDROOT
BRANCH   2   6
ATOM      6  C   UNL     1      36.582   4.768  13.002  0.00  0.00    +0.000 A 
ATOM      7  C   UNL     1      36.549   5.996  12.398  0.00  0.00    +0.000 A 
ATOM      8  C   UNL     1      35.568   6.934  12.709  0.00  0.00    +0.000 A 
ATOM      9  C   UNL     1      34.591   6.666  13.638  0.00  0.00    +0.000 A 
ATOM     10  C   UNL     1      34.615   5.430  14.252  0.00  0.00    +0.000 A 
ATOM     11  C   UNL     1      35.592   4.512  13.935  0.00  0.00    +0.000 A 
BRANCH  11  12
ATOM     12  O   UNL     1      35.624   3.263  14.549  0.00  0.00    +0.000 OA
BRANCH  12  13
ATOM     13  C   UNL     1      35.693   3.081  15.945  0.00  0.00    +0.000 C 
ATOM     14  C   UNL     1      34.984   1.813  16.357  0.00  0.00    +0.000 C 
ENDBRANCH  12  13
ENDBRANCH  11  12
ENDBRANCH   2   6
BRANCH   5  15
ATOM     15  C   UNL     1      38.824   1.321  13.066  0.00  0.00    +0.000 A 
ATOM     16  C   UNL     1      38.613   1.250  14.387  0.00  0.00    +0.000 A 
ATOM     17  C   UNL     1      37.943   0.149  14.932  0.00  0.00    +0.000 A 
ATOM     18  C   UNL     1      37.498  -0.861  14.129  0.00  0.00    +0.000 A 
ATOM     19  C   UNL     1      37.711  -0.800  12.759  0.00  0.00    +0.000 A 
ATOM     20  C   UNL     1      38.392   0.332  12.257  0.00  0.00    +0.000 A 
BRANCH  18  21
ATOM     21  C   UNL     1      36.787  -2.014  14.687  0.00  0.00    +0.000 A 
ATOM     22  C   UNL     1      37.037  -3.316  14.328  0.00  0.00    +0.000 A 
ATOM     23  C   UNL     1      36.350  -4.393  14.876  0.00  0.00    +0.000 A 
ATOM     24  C   UNL     1      35.390  -4.144  15.810  0.00  0.00    +0.000 A 
ATOM     25  C   UNL     1      35.116  -2.855  16.190  0.00  0.00    +0.000 A 
ATOM     26  C   UNL     1      35.815  -1.779  15.630  0.00  0.00    +0.000 A 
ENDBRANCH  18  21
ENDBRANCH   5  15
BRANCH   1  28
ATOM     27  N   UNL     1      38.995   4.667  15.461  0.00  0.00    +0.000 NA
ATOM     28  C   UNL     1      39.502   4.460  14.174  0.00  0.00    +0.000 C 
ATOM     29  O   UNL     1      40.630   4.917  13.892  0.00  0.00    +0.000 OA
BRANCH  27  30
ATOM     30  C   UNL     1      39.461   5.303  16.596  0.00  0.00    +0.000 C 
BRANCH  30  31
ATOM     31  C   UNL     1      38.889   4.945  17.890  0.00  0.00    +0.000 C 
BRANCH  31  33
ATOM     32  C   UNL     1      40.315   6.158  19.529  0.00  0.00    +0.000 C 
ATOM     33  C   UNL     1      38.941   6.032  18.887  0.00  0.00    +0.000 C 
ENDBRANCH  31  33
ENDBRANCH  30  31
ENDBRANCH  27  30
ENDBRANCH   1  28
TORSDOF 9
ENDMDL
MODEL 10
REMARK VINA RESULT:      -6.8     24.161     27.080
REMARK  Name = 
REMARK  9 active torsions:
REMARK  status: ('A' for Active; 'I' for Inactive)
REMARK    1  A    between atoms: C_2  and  C_3
REMARK    2  A    between atoms: C_3  and  C_4
REMARK    3  A    between atoms: C_4  and  N_5
REMARK    4  A    between atoms: C_6  and  C_8
REMARK    5  A    between atoms: C_9  and  C_10
REMARK    6  A    between atoms: C_15  and  O_16
REMARK    7  A    between atoms: O_16  and  C_17
REMARK    8  A    between atoms: C_21  and  C_22
REMARK    9  A    between atoms: C_25  and  C_26
REMARK                            x       y       z     vdW  Elec       q    Type
REMARK                         _______ _______ _______ _____ _____    ______ ____
ROOT
ATOM      1  C   UNL     1      27.576  15.637  35.906  0.00  0.00    +0.000 C 
ATOM      2  C   UNL     1      28.331  15.772  34.886  0.00  0.00    +0.000 C 
ATOM      3  N   UNL     1      27.652  15.256  33.751  0.00  0.00    +0.000 NA
ATOM      4  O   UNL     1      26.852  14.296  34.167  0.00  0.00    +0.000 OA
ATOM      5  C   UNL     1      26.205  14.940  35.391  0.00  0.00    +0.000 C 
ENDROOT
BRANCH   2   6
ATOM      6  C   UNL     1      29.659  16.349  34.852  0.00  0.00    +0.000 A 
ATOM      7  C   UNL     1      29.801  17.667  34.509  0.00  0.00    +0.000 A 
ATOM      8  C   UNL     1      31.051  18.279  34.470  0.00  0.00    +0.000 A 
ATOM      9  C   UNL     1      32.198  17.584  34.774  0.00  0.00    +0.000 A 
ATOM     10  C   UNL     1      32.065  16.255  35.122  0.00  0.00    +0.000 A 
ATOM     11  C   UNL     1      30.821  15.662  35.156  0.00  0.00    +0.000 A 
BRANCH  11  12
ATOM     12  O   UNL     1      30.678  14.323  35.506  0.00  0.00    +0.000 OA
BRANCH  12  13
ATOM     13  C   UNL     1      31.004  13.809  36.778  0.00  0.00    +0.000 C 
ATOM     14  C   UNL     1      31.919  12.613  36.655  0.00  0.00    +0.000 C 
ENDBRANCH  12  13
ENDBRANCH  11  12
ENDBRANCH   2   6
BRANCH   5  15
ATOM     15  C   UNL     1      25.552  16.195  34.709  0.00  0.00    +0.000 A 
ATOM     16  C   UNL     1      25.142  16.227  33.435  0.00  0.00    +0.000 A 
ATOM     17  C   UNL     1      24.548  17.384  32.918  0.00  0.00    +0.000 A 
ATOM     18  C   UNL     1      24.379  18.488  33.702  0.00  0.00    +0.000 A 
ATOM     19  C   UNL     1      24.801  18.469  35.024  0.00  0.00    +0.000 A 
ATOM     20  C   UNL     1      25.395  17.277  35.499  0.00  0.00    +0.000 A 
BRANCH  18  21
ATOM     21  C   UNL     1      23.750  19.702  33.174  0.00  0.00    +0.000 A 
ATOM     22  C   UNL     1      23.034  19.746  32.003  0.00  0.00    +0.000 A 
ATOM     23  C   UNL     1      22.443  20.910  31.526  0.00  0.00    +0.000 A 
ATOM     24  C   UNL     1      22.580  22.054  32.254  0.00  0.00    +0.000 A 
ATOM     25  C   UNL     1      23.289  22.042  33.428  0.00  0.00    +0.000 A 
ATOM     26  C   UNL     1      23.879  20.863  33.896  0.00  0.00    +0.000 A 
ENDBRANCH  18  21
ENDBRANCH   5  15
BRANCH   1  28
ATOM     27  N   UNL     1      27.359  15.111  38.360  0.00  0.00    +0.000 NA
ATOM     28  C   UNL     1      27.717  15.971  37.317  0.00  0.00    +0.000 C 
ATOM     29  O   UNL     1      28.184  17.094  37.599  0.00  0.00    +0.000 OA
BRANCH  27  30
ATOM     30  C   UNL     1      27.392  15.193  39.740  0.00  0.00    +0.000 C 
BRANCH  30  31
ATOM     31  C   UNL     1      27.712  13.995  40.510  0.00  0.00    +0.000 C 
BRANCH  31  33
ATOM     32  C   UNL     1      26.676  11.770  40.922  0.00  0.00    +0.000 C 
ATOM     33  C   UNL     1      26.525  13.282  41.023  0.00  0.00    +0.000 C 
ENDBRANCH  31  33
ENDBRANCH  30  31
ENDBRANCH  27  30
ENDBRANCH   1  28
TORSDOF 9
ENDMDL
