MODEL 1
REMARK VINA RESULT:      -7.0      0.000      0.000
REMARK  Name = 
REMARK  4 active torsions:
REMARK  status: ('A' for Active; 'I' for Inactive)
REMARK    1  A    between atoms: C_2  and  O_3
REMARK    2  A    between atoms: O_3  and  C_4
REMARK    3  A    between atoms: C_4  and  C_6
REMARK    4  A    between atoms: C_10  and  C_11
REMARK                            x       y       z     vdW  Elec       q    Type
REMARK                         _______ _______ _______ _____ _____    ______ ____
ROOT
ATOM      1  C   UNL     1      14.394  13.028  32.894  0.00  0.00    +0.000 A 
ATOM      2  C   UNL     1      13.993  13.661  34.028  0.00  0.00    +0.000 A 
ATOM      3  C   UNL     1      13.272  14.963  33.897  0.00  0.00    +0.000 C 
ATOM      4  N   UNL     1      14.255  13.104  35.222  0.00  0.00    +0.000 NA
ATOM      5  C   UNL     1      14.904  11.931  35.363  0.00  0.00    +0.000 A 
ATOM      6  N   UNL     1      15.293  11.320  34.235  0.00  0.00    +0.000 NA
ATOM      7  C   UNL     1      15.058  11.833  33.000  0.00  0.00    +0.000 A 
ATOM      8  N   UNL     1      15.493  11.143  31.824  0.00  0.00    +0.000 NA
ENDROOT
BRANCH   5   9
ATOM      9  C   UNL     1      15.145  11.400  36.686  0.00  0.00    +0.000 A 
ATOM     10  C   UNL     1      14.148  11.361  37.620  0.00  0.00    +0.000 A 
ATOM     11  C   UNL     1      14.369  10.850  38.904  0.00  0.00    +0.000 A 
ATOM     12  C   UNL     1      15.613  10.380  39.223  0.00  0.00    +0.000 A 
ATOM     13  C   UNL     1      16.621  10.420  38.278  0.00  0.00    +0.000 A 
ATOM     14  C   UNL     1      16.395  10.933  36.995  0.00  0.00    +0.000 A 
ENDBRANCH   5   9
BRANCH   1  15
ATOM     15  C   UNL     1      14.116  13.626  31.581  0.00  0.00    +0.000 C 
ATOM     16  O   UNL     1      13.046  13.386  30.991  0.00  0.00    +0.000 OA
BRANCH  15  17
ATOM     17  O   UNL     1      15.038  14.467  30.973  0.00  0.00    +0.000 OA
BRANCH  17  19
ATOM     18  C   UNL     1      17.224  13.757  30.381  0.00  0.00    +0.000 C 
ATOM     19  C   UNL     1      15.807  13.958  29.881  0.00  0.00    +0.000 C 
ENDBRANCH  17  19
ENDBRANCH  15  17
ENDBRANCH   1  15
TORSDOF 4
ENDMDL
MODEL 2
REMARK VINA RESULT:      -6.8      3.559      6.729
REMARK  Name = 
REMARK  4 active torsions:
REMARK  status: ('A' for Active; 'I' for Inactive)
REMARK    1  A    between atoms: C_2  and  O_3
REMARK    2  A    between atoms: O_3  and  C_4
REMARK    3  A    between atoms: C_4  and  C_6
REMARK    4  A    between atoms: C_10  and  C_11
REMARK                            x       y       z     vdW  Elec       q    Type
REMARK                         _______ _______ _______ _____ _____    ______ ____
ROOT
ATOM      1  C   UNL     1      17.232  10.821  36.273  0.00  0.00    +0.000 A 
ATOM      2  C   UNL     1      17.180  10.016  35.179  0.00  0.00    +0.000 A 
ATOM      3  C   UNL     1      17.858   8.687  35.242  0.00  0.00    +0.000 C 
ATOM      4  N   UNL     1      16.528  10.437  34.082  0.00  0.00    +0.000 NA
ATOM      5  C   UNL     1      15.910  11.632  34.004  0.00  0.00    +0.000 A 
ATOM      6  N   UNL     1      15.971  12.413  35.091  0.00  0.00    +0.000 NA
ATOM      7  C   UNL     1      16.615  12.045  36.228  0.00  0.00    +0.000 A 
ATOM      8  N   UNL     1      16.652  12.914  37.365  0.00  0.00    +0.000 NA
ENDROOT
BRANCH   5   9
ATOM      9  C   UNL     1      15.229  12.008  32.784  0.00  0.00    +0.000 A 
ATOM     10  C   UNL     1      14.434  13.120  32.737  0.00  0.00    +0.000 A 
ATOM     11  C   UNL     1      13.770  13.493  31.563  0.00  0.00    +0.000 A 
ATOM     12  C   UNL     1      13.925  12.725  30.443  0.00  0.00    +0.000 A 
ATOM     13  C   UNL     1      14.728  11.601  30.491  0.00  0.00    +0.000 A 
ATOM     14  C   UNL     1      15.391  11.231  31.668  0.00  0.00    +0.000 A 
ENDBRANCH   5   9
BRANCH   1  15
ATOM     15  C   UNL     1      17.943  10.375  37.480  0.00  0.00    +0.000 C 
ATOM     16  O   UNL     1      17.339   9.761  38.378  0.00  0.00    +0.000 OA
BRANCH  15  17
ATOM     17  O   UNL     1      19.298  10.630  37.641  0.00  0.00    +0.000 OA
BRANCH  17  19
ATOM     18  C   UNL     1      20.159  12.735  38.323  0.00  0.00    +0.000 C 
ATOM     19  C   UNL     1      19.719  11.362  38.795  0.00  0.00    +0.000 C 
ENDBRANCH  17  19
ENDBRANCH  15  17
ENDBRANCH   1  15
TORSDOF 4
ENDMDL
MODEL 3
REMARK VINA RESULT:      -6.8      3.567      6.491
REMARK  Name = 
REMARK  4 active torsions:
REMARK  status: ('A' for Active; 'I' for Inactive)
REMARK    1  A    between atoms: C_2  and  O_3
REMARK    2  A    between atoms: O_3  and  C_4
REMARK    3  A    between atoms: C_4  and  C_6
REMARK    4  A    between atoms: C_10  and  C_11
REMARK                            x       y       z     vdW  Elec       q    Type
REMARK                         _______ _______ _______ _____ _____    ______ ____
ROOT
ATOM      1  C   UNL     1      17.291  10.716  36.184  0.00  0.00    +0.000 A 
ATOM      2  C   UNL     1      16.710  11.943  36.113  0.00  0.00    +0.000 A 
ATOM      3  C   UNL     1      16.813  12.846  37.297  0.00  0.00    +0.000 C 
ATOM      4  N   UNL     1      16.065  12.303  34.990  0.00  0.00    +0.000 NA
ATOM      5  C   UNL     1      15.960  11.502  33.910  0.00  0.00    +0.000 A 
ATOM      6  N   UNL     1      16.538  10.296  33.997  0.00  0.00    +0.000 NA
ATOM      7  C   UNL     1      17.203   9.875  35.104  0.00  0.00    +0.000 A 
ATOM      8  N   UNL     1      17.805   8.578  35.149  0.00  0.00    +0.000 NA
ENDROOT
BRANCH   5   9
ATOM      9  C   UNL     1      15.249  11.968  32.740  0.00  0.00    +0.000 A 
ATOM     10  C   UNL     1      14.470  13.090  32.792  0.00  0.00    +0.000 A 
ATOM     11  C   UNL     1      13.776  13.549  31.666  0.00  0.00    +0.000 A 
ATOM     12  C   UNL     1      13.886  12.856  30.493  0.00  0.00    +0.000 A 
ATOM     13  C   UNL     1      14.674  11.721  30.442  0.00  0.00    +0.000 A 
ATOM     14  C   UNL     1      15.366  11.265  31.571  0.00  0.00    +0.000 A 
ENDBRANCH   5   9
BRANCH   1  15
ATOM     15  C   UNL     1      17.998  10.308  37.405  0.00  0.00    +0.000 C 
ATOM     16  O   UNL     1      17.387   9.745  38.332  0.00  0.00    +0.000 OA
BRANCH  15  17
ATOM     17  O   UNL     1      19.360  10.539  37.549  0.00  0.00    +0.000 OA
BRANCH  17  19
ATOM     18  C   UNL     1      20.380  12.512  38.388  0.00  0.00    +0.000 C 
ATOM     19  C   UNL     1      19.822  11.150  38.755  0.00  0.00    +0.000 C 
ENDBRANCH  17  19
ENDBRANCH  15  17
ENDBRANCH   1  15
TORSDOF 4
ENDMDL
MODEL 4
REMARK VINA RESULT:      -6.8      1.580      2.126
REMARK  Name = 
REMARK  4 active torsions:
REMARK  status: ('A' for Active; 'I' for Inactive)
REMARK    1  A    between atoms: C_2  and  O_3
REMARK    2  A    between atoms: O_3  and  C_4
REMARK    3  A    between atoms: C_4  and  C_6
REMARK    4  A    between atoms: C_10  and  C_11
REMARK                            x       y       z     vdW  Elec       q    Type
REMARK                         _______ _______ _______ _____ _____    ______ ____
ROOT
ATOM      1  C   UNL     1      15.442  11.749  33.409  0.00  0.00    +0.000 A 
ATOM      2  C   UNL     1      15.130  12.235  34.639  0.00  0.00    +0.000 A 
ATOM      3  C   UNL     1      14.081  13.293  34.740  0.00  0.00    +0.000 C 
ATOM      4  N   UNL     1      15.771  11.755  35.720  0.00  0.00    +0.000 NA
ATOM      5  C   UNL     1      16.721  10.801  35.651  0.00  0.00    +0.000 A 
ATOM      6  N   UNL     1      17.015  10.333  34.430  0.00  0.00    +0.000 NA
ATOM      7  C   UNL     1      16.404  10.778  33.302  0.00  0.00    +0.000 A 
ATOM      8  N   UNL     1      16.754  10.246  32.020  0.00  0.00    +0.000 NA
ENDROOT
BRANCH   5   9
ATOM      9  C   UNL     1      17.361  10.340  36.863  0.00  0.00    +0.000 A 
ATOM     10  C   UNL     1      16.707  10.382  38.063  0.00  0.00    +0.000 A 
ATOM     11  C   UNL     1      17.317   9.939  39.242  0.00  0.00    +0.000 A 
ATOM     12  C   UNL     1      18.593   9.453  39.185  0.00  0.00    +0.000 A 
ATOM     13  C   UNL     1      19.254   9.411  37.971  0.00  0.00    +0.000 A 
ATOM     14  C   UNL     1      18.640   9.856  36.793  0.00  0.00    +0.000 A 
ENDBRANCH   5   9
BRANCH   1  15
ATOM     15  C   UNL     1      14.751  12.264  32.219  0.00  0.00    +0.000 C 
ATOM     16  O   UNL     1      13.890  11.576  31.640  0.00  0.00    +0.000 OA
BRANCH  15  17
ATOM     17  O   UNL     1      15.044  13.525  31.717  0.00  0.00    +0.000 OA
BRANCH  17  19
ATOM     18  C   UNL     1      16.887  13.616  30.224  0.00  0.00    +0.000 C 
ATOM     19  C   UNL     1      15.374  13.646  30.332  0.00  0.00    +0.000 C 
ENDBRANCH  17  19
ENDBRANCH  15  17
ENDBRANCH   1  15
TORSDOF 4
ENDMDL
MODEL 5
REMARK VINA RESULT:      -6.7      3.509      7.098
REMARK  Name = 
REMARK  4 active torsions:
REMARK  status: ('A' for Active; 'I' for Inactive)
REMARK    1  A    between atoms: C_2  and  O_3
REMARK    2  A    between atoms: O_3  and  C_4
REMARK    3  A    between atoms: C_4  and  C_6
REMARK    4  A    between atoms: C_10  and  C_11
REMARK                            x       y       z     vdW  Elec       q    Type
REMARK                         _______ _______ _______ _____ _____    ______ ____
ROOT
ATOM      1  C   UNL     1      17.238  10.832  36.280  0.00  0.00    +0.000 A 
ATOM      2  C   UNL     1      17.174  10.029  35.185  0.00  0.00    +0.000 A 
ATOM      3  C   UNL     1      17.842   8.695  35.244  0.00  0.00    +0.000 C 
ATOM      4  N   UNL     1      16.519  10.456  34.092  0.00  0.00    +0.000 NA
ATOM      5  C   UNL     1      15.910  11.657  34.018  0.00  0.00    +0.000 A 
ATOM      6  N   UNL     1      15.983  12.436  35.107  0.00  0.00    +0.000 NA
ATOM      7  C   UNL     1      16.630  12.061  36.240  0.00  0.00    +0.000 A 
ATOM      8  N   UNL     1      16.680  12.928  37.377  0.00  0.00    +0.000 NA
ENDROOT
BRANCH   5   9
ATOM      9  C   UNL     1      15.226  12.040  32.803  0.00  0.00    +0.000 A 
ATOM     10  C   UNL     1      15.358  11.300  31.660  0.00  0.00    +0.000 A 
ATOM     11  C   UNL     1      14.701  11.661  30.478  0.00  0.00    +0.000 A 
ATOM     12  C   UNL     1      13.912  12.777  30.474  0.00  0.00    +0.000 A 
ATOM     13  C   UNL     1      13.780  13.525  31.630  0.00  0.00    +0.000 A 
ATOM     14  C   UNL     1      14.439  13.160  32.811  0.00  0.00    +0.000 A 
ENDBRANCH   5   9
BRANCH   1  15
ATOM     15  C   UNL     1      17.951  10.380  37.483  0.00  0.00    +0.000 C 
ATOM     16  O   UNL     1      19.165  10.615  37.624  0.00  0.00    +0.000 OA
BRANCH  15  17
ATOM     17  O   UNL     1      17.286   9.683  38.483  0.00  0.00    +0.000 OA
BRANCH  17  19
ATOM     18  C   UNL     1      16.742   9.469  40.784  0.00  0.00    +0.000 C 
ATOM     19  C   UNL     1      17.872   9.640  39.786  0.00  0.00    +0.000 C 
ENDBRANCH  17  19
ENDBRANCH  15  17
ENDBRANCH   1  15
TORSDOF 4
ENDMDL
MODEL 6
REMARK VINA RESULT:      -6.0     20.853     22.238
REMARK  Name = 
REMARK  4 active torsions:
REMARK  status: ('A' for Active; 'I' for Inactive)
REMARK    1  A    between atoms: C_2  and  O_3
REMARK    2  A    between atoms: O_3  and  C_4
REMARK    3  A    between atoms: C_4  and  C_6
REMARK    4  A    between atoms: C_10  and  C_11
REMARK                            x       y       z     vdW  Elec       q    Type
REMARK                         _______ _______ _______ _____ _____    ______ ____
ROOT
ATOM      1  C   UNL     1      33.923   3.154  35.155  0.00  0.00    +0.000 A 
ATOM      2  C   UNL     1      33.564   2.656  33.943  0.00  0.00    +0.000 A 
ATOM      3  C   UNL     1      33.445   3.602  32.794  0.00  0.00    +0.000 C 
ATOM      4  N   UNL     1      33.326   1.339  33.816  0.00  0.00    +0.000 NA
ATOM      5  C   UNL     1      33.427   0.468  34.840  0.00  0.00    +0.000 A 
ATOM      6  N   UNL     1      33.783   0.976  36.028  0.00  0.00    +0.000 NA
ATOM      7  C   UNL     1      34.035   2.296  36.220  0.00  0.00    +0.000 A 
ATOM      8  N   UNL     1      34.412   2.791  37.509  0.00  0.00    +0.000 NA
ENDROOT
BRANCH   5   9
ATOM      9  C   UNL     1      33.154  -0.935  34.617  0.00  0.00    +0.000 A 
ATOM     10  C   UNL     1      32.268  -1.612  35.407  0.00  0.00    +0.000 A 
ATOM     11  C   UNL     1      31.996  -2.970  35.201  0.00  0.00    +0.000 A 
ATOM     12  C   UNL     1      32.635  -3.625  34.185  0.00  0.00    +0.000 A 
ATOM     13  C   UNL     1      33.531  -2.939  33.387  0.00  0.00    +0.000 A 
ATOM     14  C   UNL     1      33.800  -1.581  33.597  0.00  0.00    +0.000 A 
ENDBRANCH   5   9
BRANCH   1  15
ATOM     15  C   UNL     1      34.185   4.591  35.311  0.00  0.00    +0.000 C 
ATOM     16  O   UNL     1      33.269   5.370  35.632  0.00  0.00    +0.000 OA
BRANCH  15  17
ATOM     17  O   UNL     1      35.458   5.108  35.104  0.00  0.00    +0.000 OA
BRANCH  17  19
ATOM     18  C   UNL     1      37.313   5.034  36.583  0.00  0.00    +0.000 C 
ATOM     19  C   UNL     1      36.083   5.821  36.173  0.00  0.00    +0.000 C 
ENDBRANCH  17  19
ENDBRANCH  15  17
ENDBRANCH   1  15
TORSDOF 4
ENDMDL
MODEL 7
REMARK VINA RESULT:      -6.0     21.844     23.266
REMARK  Name = 
REMARK  4 active torsions:
REMARK  status: ('A' for Active; 'I' for Inactive)
REMARK    1  A    between atoms: C_2  and  O_3
REMARK    2  A    between atoms: O_3  and  C_4
REMARK    3  A    between atoms: C_4  and  C_6
REMARK    4  A    between atoms: C_10  and  C_11
REMARK                            x       y       z     vdW  Elec       q    Type
REMARK                         _______ _______ _______ _____ _____    ______ ____
ROOT
ATOM      1  C   UNL     1      18.971  -7.502  25.988  0.00  0.00    +0.000 A 
ATOM      2  C   UNL     1      19.706  -6.366  25.868  0.00  0.00    +0.000 A 
ATOM      3  C   UNL     1      19.127  -5.088  26.380  0.00  0.00    +0.000 C 
ATOM      4  N   UNL     1      20.921  -6.423  25.295  0.00  0.00    +0.000 NA
ATOM      5  C   UNL     1      21.461  -7.566  24.826  0.00  0.00    +0.000 A 
ATOM      6  N   UNL     1      20.723  -8.677  24.953  0.00  0.00    +0.000 NA
ATOM      7  C   UNL     1      19.490  -8.682  25.521  0.00  0.00    +0.000 A 
ATOM      8  N   UNL     1      18.740  -9.896  25.634  0.00  0.00    +0.000 NA
ENDROOT
BRANCH   5   9
ATOM      9  C   UNL     1      22.776  -7.541  24.224  0.00  0.00    +0.000 A 
ATOM     10  C   UNL     1      23.635  -6.501  24.453  0.00  0.00    +0.000 A 
ATOM     11  C   UNL     1      24.909  -6.467  23.875  0.00  0.00    +0.000 A 
ATOM     12  C   UNL     1      25.297  -7.498  23.066  0.00  0.00    +0.000 A 
ATOM     13  C   UNL     1      24.428  -8.548  22.835  0.00  0.00    +0.000 A 
ATOM     14  C   UNL     1      23.154  -8.579  23.415  0.00  0.00    +0.000 A 
ENDBRANCH   5   9
BRANCH   1  15
ATOM     15  C   UNL     1      17.641  -7.455  26.611  0.00  0.00    +0.000 C 
ATOM     16  O   UNL     1      17.513  -7.596  27.841  0.00  0.00    +0.000 OA
BRANCH  15  17
ATOM     17  O   UNL     1      16.503  -7.251  25.842  0.00  0.00    +0.000 OA
BRANCH  17  19
ATOM     18  C   UNL     1      15.217  -8.698  24.469  0.00  0.00    +0.000 C 
ATOM     19  C   UNL     1      15.465  -8.232  25.890  0.00  0.00    +0.000 C 
ENDBRANCH  17  19
ENDBRANCH  15  17
ENDBRANCH   1  15
TORSDOF 4
ENDMDL
MODEL 8
REMARK VINA RESULT:      -5.9      3.083      4.881
REMARK  Name = 
REMARK  4 active torsions:
REMARK  status: ('A' for Active; 'I' for Inactive)
REMARK    1  A    between atoms: C_2  and  O_3
REMARK    2  A    between atoms: O_3  and  C_4
REMARK    3  A    between atoms: C_4  and  C_6
REMARK    4  A    between atoms: C_10  and  C_11
REMARK                            x       y       z     vdW  Elec       q    Type
REMARK                         _______ _______ _______ _____ _____    ______ ____
ROOT
ATOM      1  C   UNL     1      16.765  10.646  36.087  0.00  0.00    +0.000 A 
ATOM      2  C   UNL     1      17.789   9.889  36.562  0.00  0.00    +0.000 A 
ATOM      3  C   UNL     1      18.820   9.404  35.597  0.00  0.00    +0.000 C 
ATOM      4  N   UNL     1      17.842   9.601  37.874  0.00  0.00    +0.000 NA
ATOM      5  C   UNL     1      16.922  10.029  38.761  0.00  0.00    +0.000 A 
ATOM      6  N   UNL     1      15.919  10.774  38.276  0.00  0.00    +0.000 NA
ATOM      7  C   UNL     1      15.811  11.098  36.962  0.00  0.00    +0.000 A 
ATOM      8  N   UNL     1      14.721  11.897  36.491  0.00  0.00    +0.000 NA
ENDROOT
BRANCH   5   9
ATOM      9  C   UNL     1      17.054   9.675  40.157  0.00  0.00    +0.000 A 
ATOM     10  C   UNL     1      15.951   9.430  40.927  0.00  0.00    +0.000 A 
ATOM     11  C   UNL     1      16.067   9.086  42.279  0.00  0.00    +0.000 A 
ATOM     12  C   UNL     1      17.313   8.994  42.834  0.00  0.00    +0.000 A 
ATOM     13  C   UNL     1      18.427   9.242  42.055  0.00  0.00    +0.000 A 
ATOM     14  C   UNL     1      18.307   9.586  40.702  0.00  0.00    +0.000 A 
ENDBRANCH   5   9
BRANCH   1  15
ATOM     15  C   UNL     1      16.693  10.969  34.655  0.00  0.00    +0.000 C 
ATOM     16  O   UNL     1      17.215  12.009  34.214  0.00  0.00    +0.000 OA
BRANCH  15  17
ATOM     17  O   UNL     1      16.042  10.122  33.768  0.00  0.00    +0.000 OA
BRANCH  17  19
ATOM     18  C   UNL     1      15.819  10.556  31.445  0.00  0.00    +0.000 C 
ATOM     19  C   UNL     1      15.158  10.697  32.803  0.00  0.00    +0.000 C 
ENDBRANCH  17  19
ENDBRANCH  15  17
ENDBRANCH   1  15
TORSDOF 4
ENDMDL
MODEL 9
REMARK VINA RESULT:      -5.8     17.737     20.353
REMARK  Name = 
REMARK  4 active torsions:
REMARK  status: ('A' for Active; 'I' for Inactive)
REMARK    1  A    between atoms: C_2  and  O_3
REMARK    2  A    between atoms: O_3  and  C_4
REMARK    3  A    between atoms: C_4  and  C_6
REMARK    4  A    between atoms: C_10  and  C_11
REMARK                            x       y       z     vdW  Elec       q    Type
REMARK                         _______ _______ _______ _____ _____    ______ ____
ROOT
ATOM      1  C   UNL     1      28.436  24.515  23.028  0.00  0.00    +0.000 A 
ATOM      2  C   UNL     1      29.161  24.900  24.112  0.00  0.00    +0.000 A 
ATOM      3  C   UNL     1      30.406  25.692  23.887  0.00  0.00    +0.000 C 
ATOM      4  N   UNL     1      28.740  24.558  25.342  0.00  0.00    +0.000 NA
ATOM      5  C   UNL     1      27.619  23.842  25.566  0.00  0.00    +0.000 A 
ATOM      6  N   UNL     1      26.917  23.471  24.486  0.00  0.00    +0.000 NA
ATOM      7  C   UNL     1      27.291  23.786  23.219  0.00  0.00    +0.000 A 
ATOM      8  N   UNL     1      26.506  23.366  22.098  0.00  0.00    +0.000 NA
ENDROOT
BRANCH   5   9
ATOM      9  C   UNL     1      27.237  23.517  26.922  0.00  0.00    +0.000 A 
ATOM     10  C   UNL     1      26.206  24.172  27.538  0.00  0.00    +0.000 A 
ATOM     11  C   UNL     1      25.828  23.865  28.850  0.00  0.00    +0.000 A 
ATOM     12  C   UNL     1      26.507  22.889  29.523  0.00  0.00    +0.000 A 
ATOM     13  C   UNL     1      27.549  22.228  28.900  0.00  0.00    +0.000 A 
ATOM     14  C   UNL     1      27.925  22.537  27.587  0.00  0.00    +0.000 A 
ENDBRANCH   5   9
BRANCH   1  15
ATOM     15  C   UNL     1      28.884  24.880  21.677  0.00  0.00    +0.000 C 
ATOM     16  O   UNL     1      29.698  24.165  21.066  0.00  0.00    +0.000 OA
BRANCH  15  17
ATOM     17  O   UNL     1      28.408  26.028  21.057  0.00  0.00    +0.000 OA
BRANCH  17  19
ATOM     18  C   UNL     1      29.812  27.167  19.519  0.00  0.00    +0.000 C 
ATOM     19  C   UNL     1      29.284  27.151  20.940  0.00  0.00    +0.000 C 
ENDBRANCH  17  19
ENDBRANCH  15  17
ENDBRANCH   1  15
TORSDOF 4
ENDMDL
MODEL 10
REMARK VINA RESULT:      -5.8     21.827     23.266
REMARK  Name = 
REMARK  4 active torsions:
REMARK  status: ('A' for Active; 'I' for Inactive)
REMARK    1  A    between atoms: C_2  and  O_3
REMARK    2  A    between atoms: O_3  and  C_4
REMARK    3  A    between atoms: C_4  and  C_6
REMARK    4  A    between atoms: C_10  and  C_11
REMARK                            x       y       z     vdW  Elec       q    Type
REMARK                         _______ _______ _______ _____ _____    ______ ____
ROOT
ATOM      1  C   UNL     1      18.922  -7.453  26.025  0.00  0.00    +0.000 A 
ATOM      2  C   UNL     1      19.504  -8.622  25.648  0.00  0.00    +0.000 A 
ATOM      3  C   UNL     1      18.714  -9.882  25.776  0.00  0.00    +0.000 C 
ATOM      4  N   UNL     1      20.763  -8.610  25.177  0.00  0.00    +0.000 NA
ATOM      5  C   UNL     1      21.494  -7.483  25.055  0.00  0.00    +0.000 A 
ATOM      6  N   UNL     1      20.905  -6.340  25.431  0.00  0.00    +0.000 NA
ATOM      7  C   UNL     1      19.637  -6.288  25.914  0.00  0.00    +0.000 A 
ATOM      8  N   UNL     1      19.051  -5.042  26.303  0.00  0.00    +0.000 NA
ENDROOT
BRANCH   5   9
ATOM      9  C   UNL     1      22.843  -7.558  24.538  0.00  0.00    +0.000 A 
ATOM     10  C   UNL     1      23.443  -8.766  24.314  0.00  0.00    +0.000 A 
ATOM     11  C   UNL     1      24.748  -8.850  23.814  0.00  0.00    +0.000 A 
ATOM     12  C   UNL     1      25.430  -7.696  23.546  0.00  0.00    +0.000 A 
ATOM     13  C   UNL     1      24.822  -6.475  23.773  0.00  0.00    +0.000 A 
ATOM     14  C   UNL     1      23.516  -6.395  24.273  0.00  0.00    +0.000 A 
ENDBRANCH   5   9
BRANCH   1  15
ATOM     15  C   UNL     1      17.547  -7.450  26.543  0.00  0.00    +0.000 C 
ATOM     16  O   UNL     1      17.328  -7.610  27.757  0.00  0.00    +0.000 OA
BRANCH  15  17
ATOM     17  O   UNL     1      16.467  -7.270  25.689  0.00  0.00    +0.000 OA
BRANCH  17  19
ATOM     18  C   UNL     1      15.415  -8.937  24.367  0.00  0.00    +0.000 C 
ATOM     19  C   UNL     1      15.413  -8.236  25.712  0.00  0.00    +0.000 C 
ENDBRANCH  17  19
ENDBRANCH  15  17
ENDBRANCH   1  15
TORSDOF 4
ENDMDL
