MODEL 1
REMARK VINA RESULT:      -7.4      0.000      0.000
REMARK  Name = 
REMARK  9 active torsions:
REMARK  status: ('A' for Active; 'I' for Inactive)
REMARK    1  A    between atoms: O_2  and  C_3
REMARK    2  A    between atoms: C_6  and  C_7
REMARK    3  A    between atoms: C_7  and  C_8
REMARK    4  A    between atoms: N_16  and  C_17
REMARK    5  A    between atoms: C_17  and  C_18
REMARK    6  A    between atoms: C_18  and  C_20
REMARK    7  A    between atoms: C_20  and  O_21
REMARK    8  A    between atoms: O_21  and  C_22
REMARK    9  A    between atoms: C_30  and  O_31
REMARK                            x       y       z     vdW  Elec       q    Type
REMARK                         _______ _______ _______ _____ _____    ______ ____
ROOT
ATOM      1  C   UNL     1      35.785   0.040  17.295  0.00  0.00    +0.000 A 
ATOM      2  N   UNL     1      36.104  -0.271  18.581  0.00  0.00    +0.000 NA
ATOM      3  C   UNL     1      36.964  -1.305  18.595  0.00  0.00    +0.000 A 
ATOM      4  C   UNL     1      37.594  -2.008  19.600  0.00  0.00    +0.000 A 
ATOM      5  C   UNL     1      38.422  -3.027  19.230  0.00  0.00    +0.000 A 
ATOM      6  C   UNL     1      38.665  -3.396  17.932  0.00  0.00    +0.000 A 
ATOM      7  C   UNL     1      38.022  -2.678  16.927  0.00  0.00    +0.000 A 
ATOM      8  C   UNL     1      37.187  -1.651  17.284  0.00  0.00    +0.000 A 
ATOM      9  N   UNL     1      36.455  -0.813  16.510  0.00  0.00    +0.000 N 
ENDROOT
BRANCH   1  10
ATOM     10  C   UNL     1      34.859   1.116  16.874  0.00  0.00    +0.000 C 
BRANCH  10  14
ATOM     11  C   UNL     1      36.897   4.481  15.287  0.00  0.00    +0.000 A 
ATOM     12  C   UNL     1      35.715   4.056  14.730  0.00  0.00    +0.000 A 
ATOM     13  C   UNL     1      35.046   2.941  15.259  0.00  0.00    +0.000 A 
ATOM     14  C   UNL     1      35.555   2.270  16.327  0.00  0.00    +0.000 A 
ATOM     15  C   UNL     1      36.724   2.692  16.878  0.00  0.00    +0.000 A 
ATOM     16  C   UNL     1      37.415   3.807  16.365  0.00  0.00    +0.000 A 
BRANCH  11  18
ATOM     17  C   UNL     1      37.241   6.909  15.046  0.00  0.00    +0.000 C 
ATOM     18  O   UNL     1      37.583   5.572  14.794  0.00  0.00    +0.000 OA
ENDBRANCH  11  18
BRANCH  16  19
ATOM     19  O   UNL     1      38.590   4.223  16.926  0.00  0.00    +0.000 OA
ATOM     20  C   UNL     1      38.718   4.850  18.171  0.00  0.00    +0.000 C 
ENDBRANCH  16  19
ENDBRANCH  10  14
ENDBRANCH   1  10
BRANCH   9  21
ATOM     21  C   UNL     1      36.353  -0.795  15.061  0.00  0.00    +0.000 C 
BRANCH  21  22
ATOM     22  C   UNL     1      37.752  -0.031  14.573  0.00  0.00    +0.000 C 
ATOM     23  O   UNL     1      37.050   0.795  13.507  0.00  0.00    +0.000 OA
BRANCH  22  24
ATOM     24  C   UNL     1      38.261  -1.284  13.636  0.00  0.00    +0.000 C 
BRANCH  24  25
ATOM     25  O   UNL     1      39.449  -1.166  13.123  0.00  0.00    +0.000 OA
BRANCH  25  26
ATOM     26  C   UNL     1      40.703  -0.725  13.400  0.00  0.00    +0.000 A 
ATOM     27  C   UNL     1      41.149   0.466  12.891  0.00  0.00    +0.000 A 
ATOM     28  C   UNL     1      42.395   0.923  13.153  0.00  0.00    +0.000 A 
ATOM     29  C   UNL     1      43.252   0.186  13.949  0.00  0.00    +0.000 A 
ATOM     30  C   UNL     1      42.825  -1.016  14.472  0.00  0.00    +0.000 A 
ATOM     31  C   UNL     1      41.572  -1.481  14.213  0.00  0.00    +0.000 A 
ATOM     32  C   UNL     1      41.030  -2.752  14.729  0.00  0.00    +0.000 C 
ENDBRANCH  25  26
ENDBRANCH  24  25
ENDBRANCH  22  24
ENDBRANCH  21  22
ENDBRANCH   9  21
TORSDOF 9
ENDMDL
MODEL 2
REMARK VINA RESULT:      -7.0      2.765      6.254
REMARK  Name = 
REMARK  9 active torsions:
REMARK  status: ('A' for Active; 'I' for Inactive)
REMARK    1  A    between atoms: O_2  and  C_3
REMARK    2  A    between atoms: C_6  and  C_7
REMARK    3  A    between atoms: C_7  and  C_8
REMARK    4  A    between atoms: N_16  and  C_17
REMARK    5  A    between atoms: C_17  and  C_18
REMARK    6  A    between atoms: C_18  and  C_20
REMARK    7  A    between atoms: C_20  and  O_21
REMARK    8  A    between atoms: O_21  and  C_22
REMARK    9  A    between atoms: C_30  and  O_31
REMARK                            x       y       z     vdW  Elec       q    Type
REMARK                         _______ _______ _______ _____ _____    ______ ____
ROOT
ATOM      1  C   UNL     1      39.077  -2.554  15.274  0.00  0.00    +0.000 A 
ATOM      2  N   UNL     1      39.466  -3.306  16.340  0.00  0.00    +0.000 NA
ATOM      3  C   UNL     1      38.801  -2.909  17.439  0.00  0.00    +0.000 A 
ATOM      4  C   UNL     1      38.807  -3.314  18.756  0.00  0.00    +0.000 A 
ATOM      5  C   UNL     1      37.976  -2.662  19.619  0.00  0.00    +0.000 A 
ATOM      6  C   UNL     1      37.141  -1.634  19.262  0.00  0.00    +0.000 A 
ATOM      7  C   UNL     1      37.146  -1.233  17.928  0.00  0.00    +0.000 A 
ATOM      8  C   UNL     1      37.975  -1.881  17.050  0.00  0.00    +0.000 A 
ATOM      9  N   UNL     1      38.164  -1.684  15.723  0.00  0.00    +0.000 N 
ENDROOT
BRANCH   1  10
ATOM     10  C   UNL     1      39.594  -2.688  13.892  0.00  0.00    +0.000 C 
BRANCH  10  14
ATOM     11  C   UNL     1      43.774  -2.008  13.635  0.00  0.00    +0.000 A 
ATOM     12  C   UNL     1      42.988  -1.218  14.439  0.00  0.00    +0.000 A 
ATOM     13  C   UNL     1      41.605  -1.448  14.519  0.00  0.00    +0.000 A 
ATOM     14  C   UNL     1      41.027  -2.452  13.807  0.00  0.00    +0.000 A 
ATOM     15  C   UNL     1      41.806  -3.233  13.011  0.00  0.00    +0.000 A 
ATOM     16  C   UNL     1      43.195  -3.022  12.913  0.00  0.00    +0.000 A 
BRANCH  11  18
ATOM     17  C   UNL     1      46.071  -2.173  14.512  0.00  0.00    +0.000 C 
ATOM     18  O   UNL     1      45.136  -1.812  13.530  0.00  0.00    +0.000 OA
ENDBRANCH  11  18
BRANCH  16  19
ATOM     19  O   UNL     1      43.969  -3.813  12.110  0.00  0.00    +0.000 OA
ATOM     20  C   UNL     1      43.955  -3.809  10.711  0.00  0.00    +0.000 C 
ENDBRANCH  16  19
ENDBRANCH  10  14
ENDBRANCH   1  10
BRANCH   9  21
ATOM     21  C   UNL     1      37.525  -0.701  14.865  0.00  0.00    +0.000 C 
BRANCH  21  22
ATOM     22  C   UNL     1      38.547   0.614  14.939  0.00  0.00    +0.000 C 
ATOM     23  O   UNL     1      37.547   1.478  15.691  0.00  0.00    +0.000 OA
BRANCH  22  24
ATOM     24  C   UNL     1      38.221   1.114  13.406  0.00  0.00    +0.000 C 
BRANCH  24  25
ATOM     25  O   UNL     1      39.246   1.245  12.619  0.00  0.00    +0.000 OA
BRANCH  25  26
ATOM     26  C   UNL     1      40.069   0.546  11.796  0.00  0.00    +0.000 A 
ATOM     27  C   UNL     1      39.572  -0.459  11.007  0.00  0.00    +0.000 A 
ATOM     28  C   UNL     1      40.373  -1.170  10.181  0.00  0.00    +0.000 A 
ATOM     29  C   UNL     1      41.726  -0.892  10.118  0.00  0.00    +0.000 A 
ATOM     30  C   UNL     1      42.248   0.114  10.902  0.00  0.00    +0.000 A 
ATOM     31  C   UNL     1      41.447   0.834  11.735  0.00  0.00    +0.000 A 
ATOM     32  C   UNL     1      41.917   1.926  12.608  0.00  0.00    +0.000 C 
ENDBRANCH  25  26
ENDBRANCH  24  25
ENDBRANCH  22  24
ENDBRANCH  21  22
ENDBRANCH   9  21
TORSDOF 9
ENDMDL
MODEL 3
REMARK VINA RESULT:      -7.0      2.401      5.521
REMARK  Name = 
REMARK  9 active torsions:
REMARK  status: ('A' for Active; 'I' for Inactive)
REMARK    1  A    between atoms: O_2  and  C_3
REMARK    2  A    between atoms: C_6  and  C_7
REMARK    3  A    between atoms: C_7  and  C_8
REMARK    4  A    between atoms: N_16  and  C_17
REMARK    5  A    between atoms: C_17  and  C_18
REMARK    6  A    between atoms: C_18  and  C_20
REMARK    7  A    between atoms: C_20  and  O_21
REMARK    8  A    between atoms: O_21  and  C_22
REMARK    9  A    between atoms: C_30  and  O_31
REMARK                            x       y       z     vdW  Elec       q    Type
REMARK                         _______ _______ _______ _____ _____    ______ ____
ROOT
ATOM      1  C   UNL     1      37.100   3.279  15.657  0.00  0.00    +0.000 A 
ATOM      2  N   UNL     1      37.155   3.497  16.999  0.00  0.00    +0.000 NA
ATOM      3  C   UNL     1      38.184   4.317  17.281  0.00  0.00    +0.000 A 
ATOM      4  C   UNL     1      38.685   4.851  18.448  0.00  0.00    +0.000 A 
ATOM      5  C   UNL     1      39.774   5.666  18.350  0.00  0.00    +0.000 A 
ATOM      6  C   UNL     1      40.399   5.986  17.171  0.00  0.00    +0.000 A 
ATOM      7  C   UNL     1      39.882   5.439  15.999  0.00  0.00    +0.000 A 
ATOM      8  C   UNL     1      38.787   4.618  16.083  0.00  0.00    +0.000 A 
ATOM      9  N   UNL     1      38.106   3.972  15.107  0.00  0.00    +0.000 N 
ENDROOT
BRANCH   1  10
ATOM     10  C   UNL     1      36.110   2.422  14.964  0.00  0.00    +0.000 C 
BRANCH  10  14
ATOM     11  C   UNL     1      36.685  -1.703  15.772  0.00  0.00    +0.000 A 
ATOM     12  C   UNL     1      36.751  -1.230  14.484  0.00  0.00    +0.000 A 
ATOM     13  C   UNL     1      36.559   0.136  14.224  0.00  0.00    +0.000 A 
ATOM     14  C   UNL     1      36.308   1.007  15.238  0.00  0.00    +0.000 A 
ATOM     15  C   UNL     1      36.243   0.538  16.512  0.00  0.00    +0.000 A 
ATOM     16  C   UNL     1      36.431  -0.828  16.800  0.00  0.00    +0.000 A 
BRANCH  11  18
ATOM     17  C   UNL     1      36.852  -4.073  15.121  0.00  0.00    +0.000 C 
ATOM     18  O   UNL     1      36.868  -3.038  16.068  0.00  0.00    +0.000 OA
ENDBRANCH  11  18
BRANCH  16  19
ATOM     19  O   UNL     1      36.364  -1.289  18.085  0.00  0.00    +0.000 OA
ATOM     20  C   UNL     1      37.432  -1.332  18.989  0.00  0.00    +0.000 C 
ENDBRANCH  16  19
ENDBRANCH  10  14
ENDBRANCH   1  10
BRANCH   9  21
ATOM     21  C   UNL     1      38.374   3.971  13.679  0.00  0.00    +0.000 C 
BRANCH  21  22
ATOM     22  C   UNL     1      39.831   3.172  13.549  0.00  0.00    +0.000 C 
ATOM     23  O   UNL     1      40.389   4.146  12.523  0.00  0.00    +0.000 OA
BRANCH  22  24
ATOM     24  C   UNL     1      39.253   2.021  12.525  0.00  0.00    +0.000 C 
BRANCH  24  25
ATOM     25  O   UNL     1      39.917   0.905  12.489  0.00  0.00    +0.000 OA
BRANCH  25  26
ATOM     26  C   UNL     1      40.055  -0.287  13.124  0.00  0.00    +0.000 A 
ATOM     27  C   UNL     1      40.216  -0.335  14.484  0.00  0.00    +0.000 A 
ATOM     28  C   UNL     1      40.357  -1.512  15.137  0.00  0.00    +0.000 A 
ATOM     29  C   UNL     1      40.342  -2.702  14.434  0.00  0.00    +0.000 A 
ATOM     30  C   UNL     1      40.182  -2.678  13.065  0.00  0.00    +0.000 A 
ATOM     31  C   UNL     1      40.039  -1.497  12.401  0.00  0.00    +0.000 A 
ATOM     32  C   UNL     1      39.862  -1.376  10.942  0.00  0.00    +0.000 C 
ENDBRANCH  25  26
ENDBRANCH  24  25
ENDBRANCH  22  24
ENDBRANCH  21  22
ENDBRANCH   9  21
TORSDOF 9
ENDMDL
MODEL 4
REMARK VINA RESULT:      -7.0      2.382      4.373
REMARK  Name = 
REMARK  9 active torsions:
REMARK  status: ('A' for Active; 'I' for Inactive)
REMARK    1  A    between atoms: O_2  and  C_3
REMARK    2  A    between atoms: C_6  and  C_7
REMARK    3  A    between atoms: C_7  and  C_8
REMARK    4  A    between atoms: N_16  and  C_17
REMARK    5  A    between atoms: C_17  and  C_18
REMARK    6  A    between atoms: C_18  and  C_20
REMARK    7  A    between atoms: C_20  and  O_21
REMARK    8  A    between atoms: O_21  and  C_22
REMARK    9  A    between atoms: C_30  and  O_31
REMARK                            x       y       z     vdW  Elec       q    Type
REMARK                         _______ _______ _______ _____ _____    ______ ____
ROOT
ATOM      1  C   UNL     1      37.920   2.771  15.654  0.00  0.00    +0.000 A 
ATOM      2  N   UNL     1      36.988   2.820  16.645  0.00  0.00    +0.000 NA
ATOM      3  C   UNL     1      36.281   1.675  16.656  0.00  0.00    +0.000 A 
ATOM      4  C   UNL     1      35.243   1.204  17.429  0.00  0.00    +0.000 A 
ATOM      5  C   UNL     1      34.762  -0.041  17.144  0.00  0.00    +0.000 A 
ATOM      6  C   UNL     1      35.242  -0.847  16.144  0.00  0.00    +0.000 A 
ATOM      7  C   UNL     1      36.291  -0.357  15.369  0.00  0.00    +0.000 A 
ATOM      8  C   UNL     1      36.784   0.891  15.645  0.00  0.00    +0.000 A 
ATOM      9  N   UNL     1      37.784   1.584  15.049  0.00  0.00    +0.000 N 
ENDROOT
BRANCH   1  10
ATOM     10  C   UNL     1      38.881   3.849  15.323  0.00  0.00    +0.000 C 
BRANCH  10  14
ATOM     11  C   UNL     1      38.344   7.302  17.728  0.00  0.00    +0.000 A 
ATOM     12  C   UNL     1      37.919   7.290  16.421  0.00  0.00    +0.000 A 
ATOM     13  C   UNL     1      38.100   6.144  15.631  0.00  0.00    +0.000 A 
ATOM     14  C   UNL     1      38.695   5.034  16.145  0.00  0.00    +0.000 A 
ATOM     15  C   UNL     1      39.116   5.048  17.438  0.00  0.00    +0.000 A 
ATOM     16  C   UNL     1      38.947   6.184  18.251  0.00  0.00    +0.000 A 
BRANCH  11  18
ATOM     17  C   UNL     1      37.707   9.654  18.097  0.00  0.00    +0.000 C 
ATOM     18  O   UNL     1      38.184   8.410  18.536  0.00  0.00    +0.000 OA
ENDBRANCH  11  18
BRANCH  16  19
ATOM     19  O   UNL     1      39.373   6.187  19.550  0.00  0.00    +0.000 OA
ATOM     20  C   UNL     1      40.692   6.394  19.971  0.00  0.00    +0.000 C 
ENDBRANCH  16  19
ENDBRANCH  10  14
ENDBRANCH   1  10
BRANCH   9  21
ATOM     21  C   UNL     1      38.607   1.176  13.923  0.00  0.00    +0.000 C 
BRANCH  21  22
ATOM     22  C   UNL     1      39.888   0.382  14.635  0.00  0.00    +0.000 C 
ATOM     23  O   UNL     1      40.918   0.991  13.697  0.00  0.00    +0.000 OA
BRANCH  22  24
ATOM     24  C   UNL     1      39.618  -1.032  13.837  0.00  0.00    +0.000 C 
BRANCH  24  25
ATOM     25  O   UNL     1      39.305  -2.053  14.578  0.00  0.00    +0.000 OA
BRANCH  25  26
ATOM     26  C   UNL     1      38.296  -2.922  14.845  0.00  0.00    +0.000 A 
ATOM     27  C   UNL     1      37.424  -3.298  13.858  0.00  0.00    +0.000 A 
ATOM     28  C   UNL     1      36.411  -4.161  14.102  0.00  0.00    +0.000 A 
ATOM     29  C   UNL     1      36.235  -4.684  15.370  0.00  0.00    +0.000 A 
ATOM     30  C   UNL     1      37.101  -4.319  16.379  0.00  0.00    +0.000 A 
ATOM     31  C   UNL     1      38.123  -3.452  16.140  0.00  0.00    +0.000 A 
ATOM     32  C   UNL     1      39.095  -3.007  17.155  0.00  0.00    +0.000 C 
ENDBRANCH  25  26
ENDBRANCH  24  25
ENDBRANCH  22  24
ENDBRANCH  21  22
ENDBRANCH   9  21
TORSDOF 9
ENDMDL
MODEL 5
REMARK VINA RESULT:      -6.9      1.195      2.102
REMARK  Name = 
REMARK  9 active torsions:
REMARK  status: ('A' for Active; 'I' for Inactive)
REMARK    1  A    between atoms: O_2  and  C_3
REMARK    2  A    between atoms: C_6  and  C_7
REMARK    3  A    between atoms: C_7  and  C_8
REMARK    4  A    between atoms: N_16  and  C_17
REMARK    5  A    between atoms: C_17  and  C_18
REMARK    6  A    between atoms: C_18  and  C_20
REMARK    7  A    between atoms: C_20  and  O_21
REMARK    8  A    between atoms: O_21  and  C_22
REMARK    9  A    between atoms: C_30  and  O_31
REMARK                            x       y       z     vdW  Elec       q    Type
REMARK                         _______ _______ _______ _____ _____    ______ ____
ROOT
ATOM      1  C   UNL     1      35.776   0.237  17.189  0.00  0.00    +0.000 A 
ATOM      2  N   UNL     1      36.152  -0.069  18.461  0.00  0.00    +0.000 NA
ATOM      3  C   UNL     1      36.987  -1.123  18.443  0.00  0.00    +0.000 A 
ATOM      4  C   UNL     1      37.650  -1.831  19.422  0.00  0.00    +0.000 A 
ATOM      5  C   UNL     1      38.435  -2.873  19.022  0.00  0.00    +0.000 A 
ATOM      6  C   UNL     1      38.605  -3.258  17.717  0.00  0.00    +0.000 A 
ATOM      7  C   UNL     1      37.929  -2.534  16.738  0.00  0.00    +0.000 A 
ATOM      8  C   UNL     1      37.137  -1.485  17.125  0.00  0.00    +0.000 A 
ATOM      9  N   UNL     1      36.386  -0.638  16.380  0.00  0.00    +0.000 N 
ENDROOT
BRANCH   1  10
ATOM     10  C   UNL     1      34.854   1.331  16.804  0.00  0.00    +0.000 C 
BRANCH  10  14
ATOM     11  C   UNL     1      36.884   4.701  15.217  0.00  0.00    +0.000 A 
ATOM     12  C   UNL     1      37.460   3.944  16.209  0.00  0.00    +0.000 A 
ATOM     13  C   UNL     1      36.783   2.831  16.730  0.00  0.00    +0.000 A 
ATOM     14  C   UNL     1      35.553   2.486  16.262  0.00  0.00    +0.000 A 
ATOM     15  C   UNL     1      34.984   3.235  15.280  0.00  0.00    +0.000 A 
ATOM     16  C   UNL     1      35.643   4.357  14.741  0.00  0.00    +0.000 A 
BRANCH  11  18
ATOM     17  C   UNL     1      37.722   7.014  15.356  0.00  0.00    +0.000 C 
ATOM     18  O   UNL     1      37.519   5.802  14.679  0.00  0.00    +0.000 OA
ENDBRANCH  11  18
BRANCH  16  19
ATOM     19  O   UNL     1      35.062   5.103  13.754  0.00  0.00    +0.000 OA
ATOM     20  C   UNL     1      34.239   6.217  13.957  0.00  0.00    +0.000 C 
ENDBRANCH  16  19
ENDBRANCH  10  14
ENDBRANCH   1  10
BRANCH   9  21
ATOM     21  C   UNL     1      36.213  -0.631  14.938  0.00  0.00    +0.000 C 
BRANCH  21  22
ATOM     22  C   UNL     1      37.665  -0.048  14.366  0.00  0.00    +0.000 C 
ATOM     23  O   UNL     1      37.016   1.062  13.554  0.00  0.00    +0.000 OA
BRANCH  22  24
ATOM     24  C   UNL     1      37.802  -1.185  13.185  0.00  0.00    +0.000 C 
BRANCH  24  25
ATOM     25  O   UNL     1      38.799  -2.011  13.301  0.00  0.00    +0.000 OA
BRANCH  25  26
ATOM     26  C   UNL     1      40.155  -2.063  13.333  0.00  0.00    +0.000 A 
ATOM     27  C   UNL     1      40.833  -1.794  14.494  0.00  0.00    +0.000 A 
ATOM     28  C   UNL     1      42.184  -1.838  14.548  0.00  0.00    +0.000 A 
ATOM     29  C   UNL     1      42.915  -2.161  13.419  0.00  0.00    +0.000 A 
ATOM     30  C   UNL     1      42.254  -2.435  12.241  0.00  0.00    +0.000 A 
ATOM     31  C   UNL     1      40.894  -2.393  12.179  0.00  0.00    +0.000 A 
ATOM     32  C   UNL     1      40.105  -2.671  10.965  0.00  0.00    +0.000 C 
ENDBRANCH  25  26
ENDBRANCH  24  25
ENDBRANCH  22  24
ENDBRANCH  21  22
ENDBRANCH   9  21
TORSDOF 9
ENDMDL
MODEL 6
REMARK VINA RESULT:      -6.9      3.165      6.619
REMARK  Name = 
REMARK  9 active torsions:
REMARK  status: ('A' for Active; 'I' for Inactive)
REMARK    1  A    between atoms: O_2  and  C_3
REMARK    2  A    between atoms: C_6  and  C_7
REMARK    3  A    between atoms: C_7  and  C_8
REMARK    4  A    between atoms: N_16  and  C_17
REMARK    5  A    between atoms: C_17  and  C_18
REMARK    6  A    between atoms: C_18  and  C_20
REMARK    7  A    between atoms: C_20  and  O_21
REMARK    8  A    between atoms: O_21  and  C_22
REMARK    9  A    between atoms: C_30  and  O_31
REMARK                            x       y       z     vdW  Elec       q    Type
REMARK                         _______ _______ _______ _____ _____    ______ ____
ROOT
ATOM      1  C   UNL     1      38.104   5.084  16.376  0.00  0.00    +0.000 A 
ATOM      2  N   UNL     1      37.895   6.377  16.004  0.00  0.00    +0.000 NA
ATOM      3  C   UNL     1      37.081   6.412  14.933  0.00  0.00    +0.000 A 
ATOM      4  C   UNL     1      36.557   7.431  14.168  0.00  0.00    +0.000 A 
ATOM      5  C   UNL     1      35.746   7.082  13.128  0.00  0.00    +0.000 A 
ATOM      6  C   UNL     1      35.421   5.791  12.798  0.00  0.00    +0.000 A 
ATOM      7  C   UNL     1      35.958   4.771  13.580  0.00  0.00    +0.000 A 
ATOM      8  C   UNL     1      36.775   5.107  14.628  0.00  0.00    +0.000 A 
ATOM      9  N   UNL     1      37.412   4.316  15.524  0.00  0.00    +0.000 N 
ENDROOT
BRANCH   1  10
ATOM     10  C   UNL     1      38.952   4.640  17.506  0.00  0.00    +0.000 C 
BRANCH  10  14
ATOM     11  C   UNL     1      40.848   7.877  19.489  0.00  0.00    +0.000 A 
ATOM     12  C   UNL     1      41.495   7.201  18.483  0.00  0.00    +0.000 A 
ATOM     13  C   UNL     1      40.862   6.130  17.832  0.00  0.00    +0.000 A 
ATOM     14  C   UNL     1      39.605   5.749  18.184  0.00  0.00    +0.000 A 
ATOM     15  C   UNL     1      38.965   6.419  19.179  0.00  0.00    +0.000 A 
ATOM     16  C   UNL     1      39.578   7.496  19.849  0.00  0.00    +0.000 A 
BRANCH  11  18
ATOM     17  C   UNL     1      41.573  10.227  19.628  0.00  0.00    +0.000 C 
ATOM     18  O   UNL     1      41.437   8.933  20.152  0.00  0.00    +0.000 OA
ENDBRANCH  11  18
BRANCH  16  19
ATOM     19  O   UNL     1      38.926   8.163  20.849  0.00  0.00    +0.000 OA
ATOM     20  C   UNL     1      37.846   9.035  20.672  0.00  0.00    +0.000 C 
ENDBRANCH  16  19
ENDBRANCH  10  14
ENDBRANCH   1  10
BRANCH   9  21
ATOM     21  C   UNL     1      37.405   2.865  15.600  0.00  0.00    +0.000 C 
BRANCH  21  22
ATOM     22  C   UNL     1      35.995   2.518  16.417  0.00  0.00    +0.000 C 
ATOM     23  O   UNL     1      36.713   2.136  17.702  0.00  0.00    +0.000 OA
BRANCH  22  24
ATOM     24  C   UNL     1      35.833   1.019  15.757  0.00  0.00    +0.000 C 
BRANCH  24  25
ATOM     25  O   UNL     1      36.319   0.034  16.453  0.00  0.00    +0.000 OA
BRANCH  25  26
ATOM     26  C   UNL     1      37.312  -0.891  16.461  0.00  0.00    +0.000 A 
ATOM     27  C   UNL     1      38.076  -1.102  15.343  0.00  0.00    +0.000 A 
ATOM     28  C   UNL     1      39.069  -2.019  15.329  0.00  0.00    +0.000 A 
ATOM     29  C   UNL     1      39.336  -2.772  16.458  0.00  0.00    +0.000 A 
ATOM     30  C   UNL     1      38.580  -2.577  17.595  0.00  0.00    +0.000 A 
ATOM     31  C   UNL     1      37.579  -1.654  17.616  0.00  0.00    +0.000 A 
ATOM     32  C   UNL     1      36.723  -1.379  18.784  0.00  0.00    +0.000 C 
ENDBRANCH  25  26
ENDBRANCH  24  25
ENDBRANCH  22  24
ENDBRANCH  21  22
ENDBRANCH   9  21
TORSDOF 9
ENDMDL
MODEL 7
REMARK VINA RESULT:      -6.8      2.432      6.100
REMARK  Name = 
REMARK  9 active torsions:
REMARK  status: ('A' for Active; 'I' for Inactive)
REMARK    1  A    between atoms: O_2  and  C_3
REMARK    2  A    between atoms: C_6  and  C_7
REMARK    3  A    between atoms: C_7  and  C_8
REMARK    4  A    between atoms: N_16  and  C_17
REMARK    5  A    between atoms: C_17  and  C_18
REMARK    6  A    between atoms: C_18  and  C_20
REMARK    7  A    between atoms: C_20  and  O_21
REMARK    8  A    between atoms: O_21  and  C_22
REMARK    9  A    between atoms: C_30  and  O_31
REMARK                            x       y       z     vdW  Elec       q    Type
REMARK                         _______ _______ _______ _____ _____    ______ ____
ROOT
ATOM      1  C   UNL     1      37.906  -0.155  15.407  0.00  0.00    +0.000 A 
ATOM      2  N   UNL     1      37.081   0.120  16.454  0.00  0.00    +0.000 NA
ATOM      3  C   UNL     1      36.228   1.102  16.112  0.00  0.00    +0.000 A 
ATOM      4  C   UNL     1      35.209   1.753  16.772  0.00  0.00    +0.000 A 
ATOM      5  C   UNL     1      34.540   2.727  16.091  0.00  0.00    +0.000 A 
ATOM      6  C   UNL     1      34.814   3.097  14.799  0.00  0.00    +0.000 A 
ATOM      7  C   UNL     1      35.847   2.431  14.143  0.00  0.00    +0.000 A 
ATOM      8  C   UNL     1      36.528   1.451  14.816  0.00  0.00    +0.000 A 
ATOM      9  N   UNL     1      37.556   0.668  14.409  0.00  0.00    +0.000 N 
ENDROOT
BRANCH   1  10
ATOM     10  C   UNL     1      38.985  -1.169  15.404  0.00  0.00    +0.000 C 
BRANCH  10  14
ATOM     11  C   UNL     1      37.649  -4.979  16.706  0.00  0.00    +0.000 A 
ATOM     12  C   UNL     1      37.165  -4.431  15.543  0.00  0.00    +0.000 A 
ATOM     13  C   UNL     1      37.611  -3.170  15.118  0.00  0.00    +0.000 A 
ATOM     14  C   UNL     1      38.525  -2.475  15.847  0.00  0.00    +0.000 A 
ATOM     15  C   UNL     1      39.004  -3.019  16.998  0.00  0.00    +0.000 A 
ATOM     16  C   UNL     1      38.573  -4.282  17.447  0.00  0.00    +0.000 A 
BRANCH  11  18
ATOM     17  C   UNL     1      36.007  -6.811  16.834  0.00  0.00    +0.000 C 
ATOM     18  O   UNL     1      37.235  -6.216  17.156  0.00  0.00    +0.000 OA
ENDBRANCH  11  18
BRANCH  16  19
ATOM     19  O   UNL     1      39.060  -4.819  18.606  0.00  0.00    +0.000 OA
ATOM     20  C   UNL     1      38.991  -4.221  19.869  0.00  0.00    +0.000 C 
ENDBRANCH  16  19
ENDBRANCH  10  14
ENDBRANCH   1  10
BRANCH   9  21
ATOM     21  C   UNL     1      38.230   0.675  13.122  0.00  0.00    +0.000 C 
BRANCH  21  22
ATOM     22  C   UNL     1      39.143   2.068  13.159  0.00  0.00    +0.000 C 
ATOM     23  O   UNL     1      38.472   2.662  11.930  0.00  0.00    +0.000 OA
BRANCH  22  24
ATOM     24  C   UNL     1      40.451   1.382  12.432  0.00  0.00    +0.000 C 
BRANCH  24  25
ATOM     25  O   UNL     1      40.804   0.214  12.880  0.00  0.00    +0.000 OA
BRANCH  25  26
ATOM     26  C   UNL     1      41.861  -0.470  13.389  0.00  0.00    +0.000 A 
ATOM     27  C   UNL     1      42.851   0.188  14.070  0.00  0.00    +0.000 A 
ATOM     28  C   UNL     1      43.914  -0.473  14.583  0.00  0.00    +0.000 A 
ATOM     29  C   UNL     1      44.021  -1.843  14.428  0.00  0.00    +0.000 A 
ATOM     30  C   UNL     1      43.036  -2.525  13.746  0.00  0.00    +0.000 A 
ATOM     31  C   UNL     1      41.963  -1.866  13.227  0.00  0.00    +0.000 A 
ATOM     32  C   UNL     1      40.865  -2.513  12.486  0.00  0.00    +0.000 C 
ENDBRANCH  25  26
ENDBRANCH  24  25
ENDBRANCH  22  24
ENDBRANCH  21  22
ENDBRANCH   9  21
TORSDOF 9
ENDMDL
MODEL 8
REMARK VINA RESULT:      -6.8      2.402      7.008
REMARK  Name = 
REMARK  9 active torsions:
REMARK  status: ('A' for Active; 'I' for Inactive)
REMARK    1  A    between atoms: O_2  and  C_3
REMARK    2  A    between atoms: C_6  and  C_7
REMARK    3  A    between atoms: C_7  and  C_8
REMARK    4  A    between atoms: N_16  and  C_17
REMARK    5  A    between atoms: C_17  and  C_18
REMARK    6  A    between atoms: C_18  and  C_20
REMARK    7  A    between atoms: C_20  and  O_21
REMARK    8  A    between atoms: O_21  and  C_22
REMARK    9  A    between atoms: C_30  and  O_31
REMARK                            x       y       z     vdW  Elec       q    Type
REMARK                         _______ _______ _______ _____ _____    ______ ____
ROOT
ATOM      1  C   UNL     1      38.416   0.368  15.158  0.00  0.00    +0.000 A 
ATOM      2  N   UNL     1      39.159   1.466  14.849  0.00  0.00    +0.000 NA
ATOM      3  C   UNL     1      38.343   2.488  14.533  0.00  0.00    +0.000 A 
ATOM      4  C   UNL     1      38.557   3.795  14.152  0.00  0.00    +0.000 A 
ATOM      5  C   UNL     1      37.459   4.565  13.905  0.00  0.00    +0.000 A 
ATOM      6  C   UNL     1      36.164   4.125  14.011  0.00  0.00    +0.000 A 
ATOM      7  C   UNL     1      35.963   2.802  14.397  0.00  0.00    +0.000 A 
ATOM      8  C   UNL     1      37.057   2.017  14.648  0.00  0.00    +0.000 A 
ATOM      9  N   UNL     1      37.129   0.719  15.031  0.00  0.00    +0.000 N 
ENDROOT
BRANCH   1  10
ATOM     10  C   UNL     1      38.956  -0.955  15.547  0.00  0.00    +0.000 C 
BRANCH  10  14
ATOM     11  C   UNL     1      40.812  -2.975  12.311  0.00  0.00    +0.000 A 
ATOM     12  C   UNL     1      39.457  -2.747  12.305  0.00  0.00    +0.000 A 
ATOM     13  C   UNL     1      38.850  -2.079  13.379  0.00  0.00    +0.000 A 
ATOM     14  C   UNL     1      39.589  -1.648  14.436  0.00  0.00    +0.000 A 
ATOM     15  C   UNL     1      40.930  -1.874  14.441  0.00  0.00    +0.000 A 
ATOM     16  C   UNL     1      41.564  -2.543  13.376  0.00  0.00    +0.000 A 
BRANCH  11  18
ATOM     17  C   UNL     1      41.095  -3.506   9.922  0.00  0.00    +0.000 C 
ATOM     18  O   UNL     1      41.446  -3.629  11.274  0.00  0.00    +0.000 OA
ENDBRANCH  11  18
BRANCH  16  19
ATOM     19  O   UNL     1      42.913  -2.766  13.392  0.00  0.00    +0.000 OA
ATOM     20  C   UNL     1      43.898  -1.796  13.171  0.00  0.00    +0.000 C 
ENDBRANCH  16  19
ENDBRANCH  10  14
ENDBRANCH   1  10
BRANCH   9  21
ATOM     21  C   UNL     1      36.034  -0.205  15.269  0.00  0.00    +0.000 C 
BRANCH  21  22
ATOM     22  C   UNL     1      35.246   0.443  16.586  0.00  0.00    +0.000 C 
ATOM     23  O   UNL     1      36.515   0.567  17.413  0.00  0.00    +0.000 OA
BRANCH  22  24
ATOM     24  C   UNL     1      34.715  -1.011  17.144  0.00  0.00    +0.000 C 
BRANCH  24  25
ATOM     25  O   UNL     1      35.602  -1.750  17.741  0.00  0.00    +0.000 OA
BRANCH  25  26
ATOM     26  C   UNL     1      36.521  -2.724  17.517  0.00  0.00    +0.000 A 
ATOM     27  C   UNL     1      36.364  -3.600  16.474  0.00  0.00    +0.000 A 
ATOM     28  C   UNL     1      37.266  -4.578  16.233  0.00  0.00    +0.000 A 
ATOM     29  C   UNL     1      38.377  -4.714  17.045  0.00  0.00    +0.000 A 
ATOM     30  C   UNL     1      38.555  -3.844  18.099  0.00  0.00    +0.000 A 
ATOM     31  C   UNL     1      37.651  -2.857  18.348  0.00  0.00    +0.000 A 
ATOM     32  C   UNL     1      37.760  -1.883  19.450  0.00  0.00    +0.000 C 
ENDBRANCH  25  26
ENDBRANCH  24  25
ENDBRANCH  22  24
ENDBRANCH  21  22
ENDBRANCH   9  21
TORSDOF 9
ENDMDL
MODEL 9
REMARK VINA RESULT:      -6.7      2.315      3.686
REMARK  Name = 
REMARK  9 active torsions:
REMARK  status: ('A' for Active; 'I' for Inactive)
REMARK    1  A    between atoms: O_2  and  C_3
REMARK    2  A    between atoms: C_6  and  C_7
REMARK    3  A    between atoms: C_7  and  C_8
REMARK    4  A    between atoms: N_16  and  C_17
REMARK    5  A    between atoms: C_17  and  C_18
REMARK    6  A    between atoms: C_18  and  C_20
REMARK    7  A    between atoms: C_20  and  O_21
REMARK    8  A    between atoms: O_21  and  C_22
REMARK    9  A    between atoms: C_30  and  O_31
REMARK                            x       y       z     vdW  Elec       q    Type
REMARK                         _______ _______ _______ _____ _____    ______ ____
ROOT
ATOM      1  C   UNL     1      37.100  -0.988  14.783  0.00  0.00    +0.000 A 
ATOM      2  N   UNL     1      35.843  -0.791  15.264  0.00  0.00    +0.000 NA
ATOM      3  C   UNL     1      35.860  -0.849  16.608  0.00  0.00    +0.000 A 
ATOM      4  C   UNL     1      34.891  -0.722  17.580  0.00  0.00    +0.000 A 
ATOM      5  C   UNL     1      35.286  -0.844  18.880  0.00  0.00    +0.000 A 
ATOM      6  C   UNL     1      36.576  -1.084  19.279  0.00  0.00    +0.000 A 
ATOM      7  C   UNL     1      37.545  -1.210  18.286  0.00  0.00    +0.000 A 
ATOM      8  C   UNL     1      37.162  -1.089  16.976  0.00  0.00    +0.000 A 
ATOM      9  N   UNL     1      37.900  -1.170  15.842  0.00  0.00    +0.000 N 
ENDROOT
BRANCH   1  10
ATOM     10  C   UNL     1      37.481  -1.005  13.351  0.00  0.00    +0.000 C 
BRANCH  10  14
ATOM     11  C   UNL     1      37.688   2.890  11.683  0.00  0.00    +0.000 A 
ATOM     12  C   UNL     1      37.316   1.818  10.907  0.00  0.00    +0.000 A 
ATOM     13  C   UNL     1      37.250   0.532  11.466  0.00  0.00    +0.000 A 
ATOM     14  C   UNL     1      37.551   0.329  12.776  0.00  0.00    +0.000 A 
ATOM     15  C   UNL     1      37.919   1.390  13.543  0.00  0.00    +0.000 A 
ATOM     16  C   UNL     1      37.994   2.690  13.007  0.00  0.00    +0.000 A 
BRANCH  11  18
ATOM     17  C   UNL     1      36.661   5.005  10.946  0.00  0.00    +0.000 C 
ATOM     18  O   UNL     1      37.765   4.168  11.170  0.00  0.00    +0.000 OA
ENDBRANCH  11  18
BRANCH  16  19
ATOM     19  O   UNL     1      38.365   3.750  13.787  0.00  0.00    +0.000 OA
ATOM     20  C   UNL     1      37.641   4.250  14.875  0.00  0.00    +0.000 C 
ENDBRANCH  16  19
ENDBRANCH  10  14
ENDBRANCH   1  10
BRANCH   9  21
ATOM     21  C   UNL     1      39.325  -1.425  15.719  0.00  0.00    +0.000 C 
BRANCH  21  22
ATOM     22  C   UNL     1      39.402  -3.013  15.219  0.00  0.00    +0.000 C 
ATOM     23  O   UNL     1      39.769  -3.535  16.600  0.00  0.00    +0.000 OA
BRANCH  22  24
ATOM     24  C   UNL     1      40.915  -2.872  14.587  0.00  0.00    +0.000 C 
BRANCH  24  25
ATOM     25  O   UNL     1      41.105  -1.870  13.782  0.00  0.00    +0.000 OA
BRANCH  25  26
ATOM     26  C   UNL     1      40.891  -1.457  12.506  0.00  0.00    +0.000 A 
ATOM     27  C   UNL     1      40.479  -2.346  11.548  0.00  0.00    +0.000 A 
ATOM     28  C   UNL     1      40.262  -1.957  10.271  0.00  0.00    +0.000 A 
ATOM     29  C   UNL     1      40.455  -0.637   9.905  0.00  0.00    +0.000 A 
ATOM     30  C   UNL     1      40.870   0.274  10.852  0.00  0.00    +0.000 A 
ATOM     31  C   UNL     1      41.090  -0.110  12.139  0.00  0.00    +0.000 A 
ATOM     32  C   UNL     1      41.533   0.794  13.216  0.00  0.00    +0.000 C 
ENDBRANCH  25  26
ENDBRANCH  24  25
ENDBRANCH  22  24
ENDBRANCH  21  22
ENDBRANCH   9  21
TORSDOF 9
ENDMDL
MODEL 10
REMARK VINA RESULT:      -6.7      2.209      6.198
REMARK  Name = 
REMARK  9 active torsions:
REMARK  status: ('A' for Active; 'I' for Inactive)
REMARK    1  A    between atoms: O_2  and  C_3
REMARK    2  A    between atoms: C_6  and  C_7
REMARK    3  A    between atoms: C_7  and  C_8
REMARK    4  A    between atoms: N_16  and  C_17
REMARK    5  A    between atoms: C_17  and  C_18
REMARK    6  A    between atoms: C_18  and  C_20
REMARK    7  A    between atoms: C_20  and  O_21
REMARK    8  A    between atoms: O_21  and  C_22
REMARK    9  A    between atoms: C_30  and  O_31
REMARK                            x       y       z     vdW  Elec       q    Type
REMARK                         _______ _______ _______ _____ _____    ______ ____
ROOT
ATOM      1  C   UNL     1      38.281  -0.349  15.108  0.00  0.00    +0.000 A 
ATOM      2  N   UNL     1      38.663  -1.637  15.321  0.00  0.00    +0.000 NA
ATOM      3  C   UNL     1      37.597  -2.367  15.696  0.00  0.00    +0.000 A 
ATOM      4  C   UNL     1      37.418  -3.692  16.029  0.00  0.00    +0.000 A 
ATOM      5  C   UNL     1      36.159  -4.091  16.369  0.00  0.00    +0.000 A 
ATOM      6  C   UNL     1      35.066  -3.263  16.400  0.00  0.00    +0.000 A 
ATOM      7  C   UNL     1      35.261  -1.926  16.061  0.00  0.00    +0.000 A 
ATOM      8  C   UNL     1      36.521  -1.512  15.718  0.00  0.00    +0.000 A 
ATOM      9  N   UNL     1      36.967  -0.285  15.355  0.00  0.00    +0.000 N 
ENDROOT
BRANCH   1  10
ATOM     10  C   UNL     1      39.177   0.756  14.693  0.00  0.00    +0.000 C 
BRANCH  10  14
ATOM     11  C   UNL     1      42.109  -0.482  11.890  0.00  0.00    +0.000 A 
ATOM     12  C   UNL     1      40.788  -0.395  11.523  0.00  0.00    +0.000 A 
ATOM     13  C   UNL     1      39.823   0.015  12.456  0.00  0.00    +0.000 A 
ATOM     14  C   UNL     1      40.179   0.331  13.730  0.00  0.00    +0.000 A 
ATOM     15  C   UNL     1      41.487   0.245  14.091  0.00  0.00    +0.000 A 
ATOM     16  C   UNL     1      42.475  -0.164  13.175  0.00  0.00    +0.000 A 
BRANCH  11  18
ATOM     17  C   UNL     1      42.841  -1.547   9.791  0.00  0.00    +0.000 C 
ATOM     18  O   UNL     1      43.087  -0.881  11.001  0.00  0.00    +0.000 OA
ENDBRANCH  11  18
BRANCH  16  19
ATOM     19  O   UNL     1      43.787  -0.248  13.549  0.00  0.00    +0.000 OA
ATOM     20  C   UNL     1      44.256  -0.258  14.867  0.00  0.00    +0.000 C 
ENDBRANCH  16  19
ENDBRANCH  10  14
ENDBRANCH   1  10
BRANCH   9  21
ATOM     21  C   UNL     1      36.204   0.947  15.244  0.00  0.00    +0.000 C 
BRANCH  21  22
ATOM     22  C   UNL     1      36.093   1.488  16.817  0.00  0.00    +0.000 C 
ATOM     23  O   UNL     1      34.578   1.608  16.776  0.00  0.00    +0.000 OA
BRANCH  22  24
ATOM     24  C   UNL     1      36.486   3.042  16.443  0.00  0.00    +0.000 C 
BRANCH  24  25
ATOM     25  O   UNL     1      37.741   3.357  16.563  0.00  0.00    +0.000 OA
BRANCH  25  26
ATOM     26  C   UNL     1      38.568   4.342  16.998  0.00  0.00    +0.000 A 
ATOM     27  C   UNL     1      38.574   4.712  18.318  0.00  0.00    +0.000 A 
ATOM     28  C   UNL     1      39.387   5.693  18.772  0.00  0.00    +0.000 A 
ATOM     29  C   UNL     1      40.239   6.347  17.901  0.00  0.00    +0.000 A 
ATOM     30  C   UNL     1      40.250   5.992  16.570  0.00  0.00    +0.000 A 
ATOM     31  C   UNL     1      39.433   5.005  16.105  0.00  0.00    +0.000 A 
ATOM     32  C   UNL     1      39.378   4.560  14.701  0.00  0.00    +0.000 C 
ENDBRANCH  25  26
ENDBRANCH  24  25
ENDBRANCH  22  24
ENDBRANCH  21  22
ENDBRANCH   9  21
TORSDOF 9
ENDMDL
