MODEL 1
REMARK VINA RESULT:      -5.8      0.000      0.000
REMARK  Name = 
REMARK  2 active torsions:
REMARK  status: ('A' for Active; 'I' for Inactive)
REMARK    1  A    between atoms: C_8  and  C_9
REMARK    2  A    between atoms: N_11  and  C_12
REMARK                            x       y       z     vdW  Elec       q    Type
REMARK                         _______ _______ _______ _____ _____    ______ ____
ROOT
ATOM      1  C   UNL     1      29.428  25.999  20.467  0.00  0.00    +0.000 C 
ATOM      2  C   UNL     1      28.660  25.642  21.746  0.00  0.00    +0.000 C 
ATOM      3  C   UNL     1      27.598  26.694  22.040  0.00  0.00    +0.000 C 
ATOM      4  C   UNL     1      29.639  25.574  22.902  0.00  0.00    +0.000 C 
ATOM      5  C   UNL     1      29.178  24.658  23.965  0.00  0.00    +0.000 C 
ATOM      6  O   UNL     1      29.924  24.419  24.928  0.00  0.00    +0.000 OA
ATOM      7  C   UNL     1      27.864  24.010  23.938  0.00  0.00    +0.000 A 
ATOM      8  C   UNL     1      27.040  23.492  24.910  0.00  0.00    +0.000 A 
ATOM      9  C   UNL     1      25.934  23.019  24.216  0.00  0.00    +0.000 A 
ATOM     10  N   UNL     1      26.100  23.245  22.902  0.00  0.00    +0.000 NA
ATOM     11  C   UNL     1      27.275  23.852  22.710  0.00  0.00    +0.000 A 
ATOM     12  C   UNL     1      27.963  24.329  21.495  0.00  0.00    +0.000 C 
ENDROOT
BRANCH   8  13
ATOM     13  C   UNL     1      27.278  23.458  26.342  0.00  0.00    +0.000 C 
ATOM     14  O   UNL     1      26.941  24.477  27.032  0.00  0.00    +0.000 OA
ATOM     15  N   UNL     1      27.851  22.407  27.063  0.00  0.00    +0.000 NA
BRANCH  15  16
ATOM     16  C   UNL     1      28.061  22.441  28.495  0.00  0.00    +0.000 A 
ATOM     17  C   UNL     1      27.137  22.031  29.367  0.00  0.00    +0.000 A 
ATOM     18  C   UNL     1      27.427  22.102  30.685  0.00  0.00    +0.000 A 
ATOM     19  S   UNL     1      29.005  22.746  30.696  0.00  0.00    +0.000 S 
ATOM     20  C   UNL     1      29.239  22.904  29.016  0.00  0.00    +0.000 A 
ENDBRANCH  15  16
ENDBRANCH   8  13
TORSDOF 2
ENDMDL
MODEL 2
REMARK VINA RESULT:      -5.5     22.798     25.700
REMARK  Name = 
REMARK  2 active torsions:
REMARK  status: ('A' for Active; 'I' for Inactive)
REMARK    1  A    between atoms: C_8  and  C_9
REMARK    2  A    between atoms: N_11  and  C_12
REMARK                            x       y       z     vdW  Elec       q    Type
REMARK                         _______ _______ _______ _____ _____    ______ ____
ROOT
ATOM      1  C   UNL     1      34.485   7.063  35.380  0.00  0.00    +0.000 C 
ATOM      2  C   UNL     1      34.718   5.596  35.760  0.00  0.00    +0.000 C 
ATOM      3  C   UNL     1      36.183   5.363  36.108  0.00  0.00    +0.000 C 
ATOM      4  C   UNL     1      34.331   4.719  34.586  0.00  0.00    +0.000 C 
ATOM      5  C   UNL     1      33.904   3.372  35.018  0.00  0.00    +0.000 C 
ATOM      6  O   UNL     1      33.458   2.576  34.176  0.00  0.00    +0.000 OA
ATOM      7  C   UNL     1      33.984   2.924  36.411  0.00  0.00    +0.000 A 
ATOM      8  C   UNL     1      34.067   1.687  37.008  0.00  0.00    +0.000 A 
ATOM      9  C   UNL     1      34.109   1.958  38.369  0.00  0.00    +0.000 A 
ATOM     10  N   UNL     1      34.052   3.286  38.564  0.00  0.00    +0.000 NA
ATOM     11  C   UNL     1      33.977   3.896  37.377  0.00  0.00    +0.000 A 
ATOM     12  C   UNL     1      33.894   5.318  36.992  0.00  0.00    +0.000 C 
ENDROOT
BRANCH   8  13
ATOM     13  C   UNL     1      34.107   0.392  36.353  0.00  0.00    +0.000 C 
ATOM     14  O   UNL     1      35.208  -0.254  36.363  0.00  0.00    +0.000 OA
ATOM     15  N   UNL     1      33.047  -0.238  35.696  0.00  0.00    +0.000 NA
BRANCH  15  16
ATOM     16  C   UNL     1      33.158  -1.534  35.060  0.00  0.00    +0.000 A 
ATOM     17  C   UNL     1      33.520  -1.680  33.783  0.00  0.00    +0.000 A 
ATOM     18  C   UNL     1      33.594  -2.933  33.281  0.00  0.00    +0.000 A 
ATOM     19  S   UNL     1      33.155  -3.905  34.609  0.00  0.00    +0.000 S 
ATOM     20  C   UNL     1      32.889  -2.679  35.761  0.00  0.00    +0.000 A 
ENDBRANCH  15  16
ENDBRANCH   8  13
TORSDOF 2
ENDMDL
MODEL 3
REMARK VINA RESULT:      -5.4      4.106      7.470
REMARK  Name = 
REMARK  2 active torsions:
REMARK  status: ('A' for Active; 'I' for Inactive)
REMARK    1  A    between atoms: C_8  and  C_9
REMARK    2  A    between atoms: N_11  and  C_12
REMARK                            x       y       z     vdW  Elec       q    Type
REMARK                         _______ _______ _______ _____ _____    ______ ____
ROOT
ATOM      1  C   UNL     1      30.443  23.025  26.953  0.00  0.00    +0.000 C 
ATOM      2  C   UNL     1      30.211  23.330  25.468  0.00  0.00    +0.000 C 
ATOM      3  C   UNL     1      30.930  22.308  24.596  0.00  0.00    +0.000 C 
ATOM      4  C   UNL     1      30.742  24.718  25.165  0.00  0.00    +0.000 C 
ATOM      5  C   UNL     1      30.034  25.345  24.030  0.00  0.00    +0.000 C 
ATOM      6  O   UNL     1      30.287  26.523  23.732  0.00  0.00    +0.000 OA
ATOM      7  C   UNL     1      29.033  24.635  23.229  0.00  0.00    +0.000 A 
ATOM      8  C   UNL     1      28.558  24.789  21.947  0.00  0.00    +0.000 A 
ATOM      9  C   UNL     1      27.610  23.785  21.802  0.00  0.00    +0.000 A 
ATOM     10  N   UNL     1      27.531  23.076  22.940  0.00  0.00    +0.000 NA
ATOM     11  C   UNL     1      28.395  23.579  23.826  0.00  0.00    +0.000 A 
ATOM     12  C   UNL     1      28.730  23.205  25.214  0.00  0.00    +0.000 C 
ENDROOT
BRANCH   8  13
ATOM     13  C   UNL     1      28.966  25.782  20.969  0.00  0.00    +0.000 C 
ATOM     14  O   UNL     1      29.805  25.434  20.073  0.00  0.00    +0.000 OA
ATOM     15  N   UNL     1      28.531  27.108  20.902  0.00  0.00    +0.000 NA
BRANCH  15  16
ATOM     16  C   UNL     1      28.982  28.047  19.897  0.00  0.00    +0.000 A 
ATOM     17  C   UNL     1      30.150  28.689  19.984  0.00  0.00    +0.000 A 
ATOM     18  C   UNL     1      30.483  29.547  18.995  0.00  0.00    +0.000 A 
ATOM     19  S   UNL     1      29.149  29.449  17.939  0.00  0.00    +0.000 S 
ATOM     20  C   UNL     1      28.211  28.317  18.798  0.00  0.00    +0.000 A 
ENDBRANCH  15  16
ENDBRANCH   8  13
TORSDOF 2
ENDMDL
MODEL 4
REMARK VINA RESULT:      -5.2     23.687     25.816
REMARK  Name = 
REMARK  2 active torsions:
REMARK  status: ('A' for Active; 'I' for Inactive)
REMARK    1  A    between atoms: C_8  and  C_9
REMARK    2  A    between atoms: N_11  and  C_12
REMARK                            x       y       z     vdW  Elec       q    Type
REMARK                         _______ _______ _______ _____ _____    ______ ____
ROOT
ATOM      1  C   UNL     1      34.987   5.771  38.154  0.00  0.00    +0.000 C 
ATOM      2  C   UNL     1      34.270   4.759  37.251  0.00  0.00    +0.000 C 
ATOM      3  C   UNL     1      32.783   5.081  37.167  0.00  0.00    +0.000 C 
ATOM      4  C   UNL     1      34.456   3.370  37.830  0.00  0.00    +0.000 C 
ATOM      5  C   UNL     1      34.397   2.324  36.789  0.00  0.00    +0.000 C 
ATOM      6  O   UNL     1      34.637   1.145  37.096  0.00  0.00    +0.000 OA
ATOM      7  C   UNL     1      34.065   2.614  35.392  0.00  0.00    +0.000 A 
ATOM      8  C   UNL     1      33.545   1.863  34.362  0.00  0.00    +0.000 A 
ATOM      9  C   UNL     1      33.478   2.740  33.288  0.00  0.00    +0.000 A 
ATOM     10  N   UNL     1      33.936   3.946  33.665  0.00  0.00    +0.000 NA
ATOM     11  C   UNL     1      34.299   3.891  34.950  0.00  0.00    +0.000 A 
ATOM     12  C   UNL     1      34.859   4.898  35.870  0.00  0.00    +0.000 C 
ENDROOT
BRANCH   8  13
ATOM     13  C   UNL     1      33.152   0.466  34.402  0.00  0.00    +0.000 C 
ATOM     14  O   UNL     1      31.906   0.190  34.360  0.00  0.00    +0.000 OA
ATOM     15  N   UNL     1      34.008  -0.635  34.483  0.00  0.00    +0.000 NA
BRANCH  15  16
ATOM     16  C   UNL     1      33.546  -2.006  34.520  0.00  0.00    +0.000 A 
ATOM     17  C   UNL     1      33.535  -2.791  33.439  0.00  0.00    +0.000 A 
ATOM     18  C   UNL     1      33.085  -4.058  33.575  0.00  0.00    +0.000 A 
ATOM     19  S   UNL     1      32.678  -4.145  35.227  0.00  0.00    +0.000 S 
ATOM     20  C   UNL     1      33.095  -2.560  35.688  0.00  0.00    +0.000 A 
ENDBRANCH  15  16
ENDBRANCH   8  13
TORSDOF 2
ENDMDL
MODEL 5
REMARK VINA RESULT:      -5.2      3.222      6.921
REMARK  Name = 
REMARK  2 active torsions:
REMARK  status: ('A' for Active; 'I' for Inactive)
REMARK    1  A    between atoms: C_8  and  C_9
REMARK    2  A    between atoms: N_11  and  C_12
REMARK                            x       y       z     vdW  Elec       q    Type
REMARK                         _______ _______ _______ _____ _____    ______ ____
ROOT
ATOM      1  C   UNL     1      25.157  25.710  31.680  0.00  0.00    +0.000 C 
ATOM      2  C   UNL     1      25.989  25.291  30.461  0.00  0.00    +0.000 C 
ATOM      3  C   UNL     1      27.396  25.867  30.554  0.00  0.00    +0.000 C 
ATOM      4  C   UNL     1      25.312  25.807  29.206  0.00  0.00    +0.000 C 
ATOM      5  C   UNL     1      25.617  24.970  28.028  0.00  0.00    +0.000 C 
ATOM      6  O   UNL     1      25.050  25.207  26.950  0.00  0.00    +0.000 OA
ATOM      7  C   UNL     1      26.571  23.858  28.072  0.00  0.00    +0.000 A 
ATOM      8  C   UNL     1      27.333  23.222  27.119  0.00  0.00    +0.000 A 
ATOM      9  C   UNL     1      28.023  22.242  27.820  0.00  0.00    +0.000 A 
ATOM     10  N   UNL     1      27.684  22.298  29.119  0.00  0.00    +0.000 NA
ATOM     11  C   UNL     1      26.797  23.281  29.294  0.00  0.00    +0.000 A 
ATOM     12  C   UNL     1      26.094  23.787  30.489  0.00  0.00    +0.000 C 
ENDROOT
BRANCH   8  13
ATOM     13  C   UNL     1      27.398  23.519  25.699  0.00  0.00    +0.000 C 
ATOM     14  O   UNL     1      26.659  22.843  24.908  0.00  0.00    +0.000 OA
ATOM     15  N   UNL     1      28.201  24.488  25.091  0.00  0.00    +0.000 NA
BRANCH  15  16
ATOM     16  C   UNL     1      28.216  24.731  23.664  0.00  0.00    +0.000 A 
ATOM     17  C   UNL     1      29.115  24.173  22.849  0.00  0.00    +0.000 A 
ATOM     18  C   UNL     1      29.047  24.462  21.530  0.00  0.00    +0.000 A 
ATOM     19  S   UNL     1      27.716  25.522  21.439  0.00  0.00    +0.000 S 
ATOM     20  C   UNL     1      27.292  25.560  23.087  0.00  0.00    +0.000 A 
ENDBRANCH  15  16
ENDBRANCH   8  13
TORSDOF 2
ENDMDL
MODEL 6
REMARK VINA RESULT:      -5.1     14.494     16.075
REMARK  Name = 
REMARK  2 active torsions:
REMARK  status: ('A' for Active; 'I' for Inactive)
REMARK    1  A    between atoms: C_8  and  C_9
REMARK    2  A    between atoms: N_11  and  C_12
REMARK                            x       y       z     vdW  Elec       q    Type
REMARK                         _______ _______ _______ _____ _____    ______ ____
ROOT
ATOM      1  C   UNL     1      28.563  22.308  11.280  0.00  0.00    +0.000 C 
ATOM      2  C   UNL     1      29.878  21.630  10.877  0.00  0.00    +0.000 C 
ATOM      3  C   UNL     1      29.605  20.436   9.970  0.00  0.00    +0.000 C 
ATOM      4  C   UNL     1      30.592  21.161  12.130  0.00  0.00    +0.000 C 
ATOM      5  C   UNL     1      32.056  21.103  11.943  0.00  0.00    +0.000 C 
ATOM      6  O   UNL     1      32.783  20.837  12.914  0.00  0.00    +0.000 OA
ATOM      7  C   UNL     1      32.701  21.346  10.651  0.00  0.00    +0.000 A 
ATOM      8  C   UNL     1      33.906  20.969  10.104  0.00  0.00    +0.000 A 
ATOM      9  C   UNL     1      33.908  21.536   8.836  0.00  0.00    +0.000 A 
ATOM     10  N   UNL     1      32.764  22.213   8.647  0.00  0.00    +0.000 NA
ATOM     11  C   UNL     1      32.010  22.109   9.745  0.00  0.00    +0.000 A 
ATOM     12  C   UNL     1      30.679  22.640  10.094  0.00  0.00    +0.000 C 
ENDROOT
BRANCH   8  13
ATOM     13  C   UNL     1      34.938  20.153  10.720  0.00  0.00    +0.000 C 
ATOM     14  O   UNL     1      35.108  18.967  10.284  0.00  0.00    +0.000 OA
ATOM     15  N   UNL     1      35.783  20.536  11.765  0.00  0.00    +0.000 NA
BRANCH  15  16
ATOM     16  C   UNL     1      36.793  19.669  12.334  0.00  0.00    +0.000 A 
ATOM     17  C   UNL     1      36.549  18.868  13.375  0.00  0.00    +0.000 A 
ATOM     18  C   UNL     1      37.558  18.095  13.835  0.00  0.00    +0.000 A 
ATOM     19  S   UNL     1      38.851  18.497  12.800  0.00  0.00    +0.000 S 
ATOM     20  C   UNL     1      38.059  19.639  11.816  0.00  0.00    +0.000 A 
ENDBRANCH  15  16
ENDBRANCH   8  13
TORSDOF 2
ENDMDL
MODEL 7
REMARK VINA RESULT:      -5.1     22.035     25.220
REMARK  Name = 
REMARK  2 active torsions:
REMARK  status: ('A' for Active; 'I' for Inactive)
REMARK    1  A    between atoms: C_8  and  C_9
REMARK    2  A    between atoms: N_11  and  C_12
REMARK                            x       y       z     vdW  Elec       q    Type
REMARK                         _______ _______ _______ _____ _____    ______ ____
ROOT
ATOM      1  C   UNL     1      33.987  -2.731  36.907  0.00  0.00    +0.000 C 
ATOM      2  C   UNL     1      34.310  -1.313  36.417  0.00  0.00    +0.000 C 
ATOM      3  C   UNL     1      35.669  -1.286  35.729  0.00  0.00    +0.000 C 
ATOM      4  C   UNL     1      34.325  -0.375  37.608  0.00  0.00    +0.000 C 
ATOM      5  C   UNL     1      33.984   1.010  37.225  0.00  0.00    +0.000 C 
ATOM      6  O   UNL     1      33.853   1.871  38.110  0.00  0.00    +0.000 OA
ATOM      7  C   UNL     1      33.790   1.423  35.833  0.00  0.00    +0.000 A 
ATOM      8  C   UNL     1      33.888   2.629  35.177  0.00  0.00    +0.000 A 
ATOM      9  C   UNL     1      33.574   2.336  33.857  0.00  0.00    +0.000 A 
ATOM     10  N   UNL     1      33.304   1.025  33.741  0.00  0.00    +0.000 NA
ATOM     11  C   UNL     1      33.432   0.447  34.940  0.00  0.00    +0.000 A 
ATOM     12  C   UNL     1      33.261  -0.944  35.398  0.00  0.00    +0.000 C 
ENDROOT
BRANCH   8  13
ATOM     13  C   UNL     1      34.246   3.916  35.746  0.00  0.00    +0.000 C 
ATOM     14  O   UNL     1      35.467   4.116  36.060  0.00  0.00    +0.000 OA
ATOM     15  N   UNL     1      33.380   4.983  35.994  0.00  0.00    +0.000 NA
BRANCH  15  16
ATOM     16  C   UNL     1      33.806   6.243  36.567  0.00  0.00    +0.000 A 
ATOM     17  C   UNL     1      34.211   7.273  35.819  0.00  0.00    +0.000 A 
ATOM     18  C   UNL     1      34.590   8.408  36.448  0.00  0.00    +0.000 A 
ATOM     19  S   UNL     1      34.375   8.024  38.094  0.00  0.00    +0.000 S 
ATOM     20  C   UNL     1      33.809   6.427  37.924  0.00  0.00    +0.000 A 
ENDBRANCH  15  16
ENDBRANCH   8  13
TORSDOF 2
ENDMDL
MODEL 8
REMARK VINA RESULT:      -5.0      3.620      5.374
REMARK  Name = 
REMARK  2 active torsions:
REMARK  status: ('A' for Active; 'I' for Inactive)
REMARK    1  A    between atoms: C_8  and  C_9
REMARK    2  A    between atoms: N_11  and  C_12
REMARK                            x       y       z     vdW  Elec       q    Type
REMARK                         _______ _______ _______ _____ _____    ______ ____
ROOT
ATOM      1  C   UNL     1      28.526  23.023  24.128  0.00  0.00    +0.000 C 
ATOM      2  C   UNL     1      28.860  23.286  25.602  0.00  0.00    +0.000 C 
ATOM      3  C   UNL     1      28.856  24.782  25.889  0.00  0.00    +0.000 C 
ATOM      4  C   UNL     1      30.233  22.716  25.902  0.00  0.00    +0.000 C 
ATOM      5  C   UNL     1      30.377  22.336  27.322  0.00  0.00    +0.000 C 
ATOM      6  O   UNL     1      31.410  21.758  27.696  0.00  0.00    +0.000 OA
ATOM      7  C   UNL     1      29.345  22.612  28.325  0.00  0.00    +0.000 A 
ATOM      8  C   UNL     1      29.365  22.763  29.693  0.00  0.00    +0.000 A 
ATOM      9  C   UNL     1      28.042  23.008  30.037  0.00  0.00    +0.000 A 
ATOM     10  N   UNL     1      27.282  23.002  28.929  0.00  0.00    +0.000 NA
ATOM     11  C   UNL     1      28.061  22.763  27.869  0.00  0.00    +0.000 A 
ATOM     12  C   UNL     1      27.772  22.647  26.427  0.00  0.00    +0.000 C 
ENDROOT
BRANCH   8  13
ATOM     13  C   UNL     1      30.518  22.685  30.571  0.00  0.00    +0.000 C 
ATOM     14  O   UNL     1      31.359  23.645  30.545  0.00  0.00    +0.000 OA
ATOM     15  N   UNL     1      30.814  21.651  31.462  0.00  0.00    +0.000 NA
BRANCH  15  16
ATOM     16  C   UNL     1      31.986  21.638  32.311  0.00  0.00    +0.000 A 
ATOM     17  C   UNL     1      33.175  21.198  31.889  0.00  0.00    +0.000 A 
ATOM     18  C   UNL     1      34.210  21.226  32.757  0.00  0.00    +0.000 A 
ATOM     19  S   UNL     1      33.509  21.873  34.169  0.00  0.00    +0.000 S 
ATOM     20  C   UNL     1      31.917  22.085  33.603  0.00  0.00    +0.000 A 
ENDBRANCH  15  16
ENDBRANCH   8  13
TORSDOF 2
ENDMDL
MODEL 9
REMARK VINA RESULT:      -5.0      3.649      8.264
REMARK  Name = 
REMARK  2 active torsions:
REMARK  status: ('A' for Active; 'I' for Inactive)
REMARK    1  A    between atoms: C_8  and  C_9
REMARK    2  A    between atoms: N_11  and  C_12
REMARK                            x       y       z     vdW  Elec       q    Type
REMARK                         _______ _______ _______ _____ _____    ______ ____
ROOT
ATOM      1  C   UNL     1      30.649  22.543  34.448  0.00  0.00    +0.000 C 
ATOM      2  C   UNL     1      30.982  22.776  32.969  0.00  0.00    +0.000 C 
ATOM      3  C   UNL     1      31.953  23.942  32.820  0.00  0.00    +0.000 C 
ATOM      4  C   UNL     1      29.701  23.084  32.221  0.00  0.00    +0.000 C 
ATOM      5  C   UNL     1      29.783  22.696  30.798  0.00  0.00    +0.000 C 
ATOM      6  O   UNL     1      28.773  22.791  30.082  0.00  0.00    +0.000 OA
ATOM      7  C   UNL     1      31.015  22.197  30.182  0.00  0.00    +0.000 A 
ATOM      8  C   UNL     1      31.488  22.168  28.890  0.00  0.00    +0.000 A 
ATOM      9  C   UNL     1      32.729  21.553  28.986  0.00  0.00    +0.000 A 
ATOM     10  N   UNL     1      32.975  21.235  30.268  0.00  0.00    +0.000 NA
ATOM     11  C   UNL     1      31.938  21.622  31.017  0.00  0.00    +0.000 A 
ATOM     12  C   UNL     1      31.666  21.530  32.464  0.00  0.00    +0.000 C 
ENDROOT
BRANCH   8  13
ATOM     13  C   UNL     1      30.831  22.676  27.699  0.00  0.00    +0.000 C 
ATOM     14  O   UNL     1      30.939  23.920  27.436  0.00  0.00    +0.000 OA
ATOM     15  N   UNL     1      30.074  21.933  26.790  0.00  0.00    +0.000 NA
BRANCH  15  16
ATOM     16  C   UNL     1      29.443  22.506  25.619  0.00  0.00    +0.000 A 
ATOM     17  C   UNL     1      30.104  22.720  24.478  0.00  0.00    +0.000 A 
ATOM     18  C   UNL     1      29.427  23.260  23.441  0.00  0.00    +0.000 A 
ATOM     19  S   UNL     1      27.858  23.465  24.072  0.00  0.00    +0.000 S 
ATOM     20  C   UNL     1      28.120  22.856  25.640  0.00  0.00    +0.000 A 
ENDBRANCH  15  16
ENDBRANCH   8  13
TORSDOF 2
ENDMDL
MODEL 10
REMARK VINA RESULT:      -5.0     24.675     26.370
REMARK  Name = 
REMARK  2 active torsions:
REMARK  status: ('A' for Active; 'I' for Inactive)
REMARK    1  A    between atoms: C_8  and  C_9
REMARK    2  A    between atoms: N_11  and  C_12
REMARK                            x       y       z     vdW  Elec       q    Type
REMARK                         _______ _______ _______ _____ _____    ______ ____
ROOT
ATOM      1  C   UNL     1      15.613   9.826  40.828  0.00  0.00    +0.000 C 
ATOM      2  C   UNL     1      16.616   8.817  41.402  0.00  0.00    +0.000 C 
ATOM      3  C   UNL     1      17.480   9.477  42.470  0.00  0.00    +0.000 C 
ATOM      4  C   UNL     1      17.498   8.310  40.278  0.00  0.00    +0.000 C 
ATOM      5  C   UNL     1      18.013   6.952  40.549  0.00  0.00    +0.000 C 
ATOM      6  O   UNL     1      18.664   6.362  39.672  0.00  0.00    +0.000 OA
ATOM      7  C   UNL     1      17.789   6.258  41.820  0.00  0.00    +0.000 A 
ATOM      8  C   UNL     1      18.452   5.251  42.483  0.00  0.00    +0.000 A 
ATOM      9  C   UNL     1      17.717   5.052  43.643  0.00  0.00    +0.000 A 
ATOM     10  N   UNL     1      16.673   5.898  43.663  0.00  0.00    +0.000 NA
ATOM     11  C   UNL     1      16.699   6.646  42.556  0.00  0.00    +0.000 A 
ATOM     12  C   UNL     1      15.817   7.718  42.058  0.00  0.00    +0.000 C 
ENDROOT
BRANCH   8  13
ATOM     13  C   UNL     1      19.657   4.560  42.058  0.00  0.00    +0.000 C 
ATOM     14  O   UNL     1      19.528   3.518  41.332  0.00  0.00    +0.000 OA
ATOM     15  N   UNL     1      20.971   4.919  42.365  0.00  0.00    +0.000 NA
BRANCH  15  16
ATOM     16  C   UNL     1      22.130   4.182  41.907  0.00  0.00    +0.000 A 
ATOM     17  C   UNL     1      22.664   3.176  42.605  0.00  0.00    +0.000 A 
ATOM     18  C   UNL     1      23.746   2.548  42.093  0.00  0.00    +0.000 A 
ATOM     19  S   UNL     1      24.010   3.375  40.626  0.00  0.00    +0.000 S 
ATOM     20  C   UNL     1      22.730   4.495  40.718  0.00  0.00    +0.000 A 
ENDBRANCH  15  16
ENDBRANCH   8  13
TORSDOF 2
ENDMDL
