MODEL 1
REMARK VINA RESULT:      -8.2      0.000      0.000
REMARK  Name = 
REMARK  7 active torsions:
REMARK  status: ('A' for Active; 'I' for Inactive)
REMARK    1  A    between atoms: C_5  and  C_6
REMARK    2  A    between atoms: C_9  and  S_10
REMARK    3  A    between atoms: S_10  and  C_11
REMARK    4  A    between atoms: C_11  and  C_12
REMARK    5  A    between atoms: C_16  and  C_17
REMARK    6  A    between atoms: N_19  and  C_20
REMARK    7  A    between atoms: C_20  and  C_22
REMARK                            x       y       z     vdW  Elec       q    Type
REMARK                         _______ _______ _______ _____ _____    ______ ____
ROOT
ATOM      1  C   UNL     1      40.077   1.202  13.508  0.00  0.00    +0.000 C 
ENDROOT
BRANCH   1   2
ATOM      2  C   UNL     1      40.233  -0.125  14.175  0.00  0.00    +0.000 A 
ATOM      3  C   UNL     1      41.256  -0.947  13.949  0.00  0.00    +0.000 A 
ATOM      4  C   UNL     1      41.339  -2.206  14.576  0.00  0.00    +0.000 A 
ATOM      5  C   UNL     1      40.286  -2.565  15.466  0.00  0.00    +0.000 A 
ATOM      6  C   UNL     1      39.247  -1.746  15.708  0.00  0.00    +0.000 A 
ATOM      7  C   UNL     1      39.215  -0.529  15.067  0.00  0.00    +0.000 A 
BRANCH   6   8
ATOM      8  C   UNL     1      38.184  -2.187  16.609  0.00  0.00    +0.000 C 
ATOM      9  O   UNL     1      38.338  -3.330  17.169  0.00  0.00    +0.000 OA
ATOM     10  N   UNL     1      37.047  -1.469  16.883  0.00  0.00    +0.000 NA
BRANCH  10  11
ATOM     11  C   UNL     1      35.908  -1.930  17.818  0.00  0.00    +0.000 C 
ATOM     12  C   UNL     1      34.868  -2.312  16.610  0.00  0.00    +0.000 C 
BRANCH  11  13
ATOM     13  C   UNL     1      35.229  -0.432  18.036  0.00  0.00    +0.000 C 
ATOM     14  C   UNL     1      35.252   0.107  16.619  0.00  0.00    +0.000 C 
ATOM     15  C   UNL     1      36.202   0.232  18.958  0.00  0.00    +0.000 C 
ENDBRANCH  11  13
ENDBRANCH  10  11
ENDBRANCH   6   8
ENDBRANCH   1   2
BRANCH   1  16
ATOM     16  S   UNL     1      38.552   2.022  13.601  0.00  0.00    +0.000 S 
BRANCH  16  20
ATOM     17  C   UNL     1      38.581   5.086  17.068  0.00  0.00    +0.000 A 
ATOM     18  C   UNL     1      37.605   4.133  16.995  0.00  0.00    +0.000 A 
ATOM     19  C   UNL     1      37.556   3.137  16.000  0.00  0.00    +0.000 A 
ATOM     20  C   UNL     1      38.527   3.106  15.045  0.00  0.00    +0.000 A 
ATOM     21  N   UNL     1      39.496   4.077  15.143  0.00  0.00    +0.000 NA
ATOM     22  N   UNL     1      39.508   4.988  16.086  0.00  0.00    +0.000 NA
BRANCH  17  27
ATOM     23  C   UNL     1      38.715   9.246  21.072  0.00  0.00    +0.000 C 
ATOM     24  C   UNL     1      38.747   8.145  20.060  0.00  0.00    +0.000 A 
ATOM     25  C   UNL     1      39.581   7.052  20.132  0.00  0.00    +0.000 A 
ATOM     26  C   UNL     1      39.511   6.059  19.137  0.00  0.00    +0.000 A 
ATOM     27  C   UNL     1      38.634   6.132  18.074  0.00  0.00    +0.000 A 
ATOM     28  C   UNL     1      37.809   7.265  18.043  0.00  0.00    +0.000 A 
ATOM     29  C   UNL     1      37.872   8.230  19.008  0.00  0.00    +0.000 A 
ENDBRANCH  17  27
ENDBRANCH  16  20
ENDBRANCH   1  16
TORSDOF 7
ENDMDL
MODEL 2
REMARK VINA RESULT:      -7.7      2.231      4.346
REMARK  Name = 
REMARK  7 active torsions:
REMARK  status: ('A' for Active; 'I' for Inactive)
REMARK    1  A    between atoms: C_5  and  C_6
REMARK    2  A    between atoms: C_9  and  S_10
REMARK    3  A    between atoms: S_10  and  C_11
REMARK    4  A    between atoms: C_11  and  C_12
REMARK    5  A    between atoms: C_16  and  C_17
REMARK    6  A    between atoms: N_19  and  C_20
REMARK    7  A    between atoms: C_20  and  C_22
REMARK                            x       y       z     vdW  Elec       q    Type
REMARK                         _______ _______ _______ _____ _____    ______ ____
ROOT
ATOM      1  C   UNL     1      35.974   3.389  13.816  0.00  0.00    +0.000 C 
ENDROOT
BRANCH   1   2
ATOM      2  C   UNL     1      35.661   2.300  14.789  0.00  0.00    +0.000 A 
ATOM      3  C   UNL     1      34.893   2.470  15.863  0.00  0.00    +0.000 A 
ATOM      4  C   UNL     1      34.658   1.419  16.772  0.00  0.00    +0.000 A 
ATOM      5  C   UNL     1      35.273   0.164  16.496  0.00  0.00    +0.000 A 
ATOM      6  C   UNL     1      36.051  -0.025  15.414  0.00  0.00    +0.000 A 
ATOM      7  C   UNL     1      36.249   1.035  14.561  0.00  0.00    +0.000 A 
BRANCH   6   8
ATOM      8  C   UNL     1      36.677  -1.329  15.204  0.00  0.00    +0.000 C 
ATOM      9  O   UNL     1      35.893  -2.340  15.121  0.00  0.00    +0.000 OA
ATOM     10  N   UNL     1      38.030  -1.536  15.100  0.00  0.00    +0.000 NA
BRANCH  10  11
ATOM     11  C   UNL     1      38.706  -2.910  14.898  0.00  0.00    +0.000 C 
ATOM     12  C   UNL     1      39.187  -3.071  16.456  0.00  0.00    +0.000 C 
BRANCH  11  13
ATOM     13  C   UNL     1      40.181  -2.321  14.420  0.00  0.00    +0.000 C 
ATOM     14  C   UNL     1      40.054  -0.863  14.814  0.00  0.00    +0.000 C 
ATOM     15  C   UNL     1      40.162  -2.559  12.943  0.00  0.00    +0.000 C 
ENDBRANCH  11  13
ENDBRANCH  10  11
ENDBRANCH   6   8
ENDBRANCH   1   2
BRANCH   1  16
ATOM     16  S   UNL     1      36.085   5.024  14.381  0.00  0.00    +0.000 S 
BRANCH  16  20
ATOM     17  C   UNL     1      39.574   5.809  17.318  0.00  0.00    +0.000 A 
ATOM     18  C   UNL     1      38.898   4.622  17.348  0.00  0.00    +0.000 A 
ATOM     19  C   UNL     1      37.859   4.289  16.456  0.00  0.00    +0.000 A 
ATOM     20  C   UNL     1      37.490   5.190  15.503  0.00  0.00    +0.000 A 
ATOM     21  N   UNL     1      38.187   6.377  15.496  0.00  0.00    +0.000 NA
ATOM     22  N   UNL     1      39.150   6.649  16.344  0.00  0.00    +0.000 NA
BRANCH  17  27
ATOM     23  C   UNL     1      43.759   7.208  21.042  0.00  0.00    +0.000 C 
ATOM     24  C   UNL     1      42.718   6.875  20.023  0.00  0.00    +0.000 A 
ATOM     25  C   UNL     1      42.948   6.830  18.666  0.00  0.00    +0.000 A 
ATOM     26  C   UNL     1      41.901   6.479  17.794  0.00  0.00    +0.000 A 
ATOM     27  C   UNL     1      40.631   6.176  18.243  0.00  0.00    +0.000 A 
ATOM     28  C   UNL     1      40.444   6.238  19.631  0.00  0.00    +0.000 A 
ATOM     29  C   UNL     1      41.460   6.576  20.480  0.00  0.00    +0.000 A 
ENDBRANCH  17  27
ENDBRANCH  16  20
ENDBRANCH   1  16
TORSDOF 7
ENDMDL
MODEL 3
REMARK VINA RESULT:      -7.6      2.900      4.251
REMARK  Name = 
REMARK  7 active torsions:
REMARK  status: ('A' for Active; 'I' for Inactive)
REMARK    1  A    between atoms: C_5  and  C_6
REMARK    2  A    between atoms: C_9  and  S_10
REMARK    3  A    between atoms: S_10  and  C_11
REMARK    4  A    between atoms: C_11  and  C_12
REMARK    5  A    between atoms: C_16  and  C_17
REMARK    6  A    between atoms: N_19  and  C_20
REMARK    7  A    between atoms: C_20  and  C_22
REMARK                            x       y       z     vdW  Elec       q    Type
REMARK                         _______ _______ _______ _____ _____    ______ ____
ROOT
ATOM      1  C   UNL     1      36.630   4.538  12.806  0.00  0.00    +0.000 C 
ENDROOT
BRANCH   1   2
ATOM      2  C   UNL     1      35.960   3.747  13.882  0.00  0.00    +0.000 A 
ATOM      3  C   UNL     1      34.851   4.141  14.504  0.00  0.00    +0.000 A 
ATOM      4  C   UNL     1      34.278   3.376  15.539  0.00  0.00    +0.000 A 
ATOM      5  C   UNL     1      34.930   2.161  15.894  0.00  0.00    +0.000 A 
ATOM      6  C   UNL     1      36.051   1.747  15.274  0.00  0.00    +0.000 A 
ATOM      7  C   UNL     1      36.569   2.533  14.272  0.00  0.00    +0.000 A 
BRANCH   6   8
ATOM      8  C   UNL     1      36.688   0.504  15.706  0.00  0.00    +0.000 C 
ATOM      9  O   UNL     1      37.283  -0.185  14.804  0.00  0.00    +0.000 OA
ATOM     10  N   UNL     1      36.681   0.033  16.995  0.00  0.00    +0.000 NA
BRANCH  10  11
ATOM     11  C   UNL     1      37.333  -1.287  17.462  0.00  0.00    +0.000 C 
ATOM     12  C   UNL     1      35.936  -2.145  17.481  0.00  0.00    +0.000 C 
BRANCH  11  13
ATOM     13  C   UNL     1      37.250  -0.968  19.088  0.00  0.00    +0.000 C 
ATOM     14  C   UNL     1      37.531  -2.339  19.669  0.00  0.00    +0.000 C 
ATOM     15  C   UNL     1      35.837  -0.510  19.257  0.00  0.00    +0.000 C 
ENDBRANCH  11  13
ENDBRANCH  10  11
ENDBRANCH   6   8
ENDBRANCH   1   2
BRANCH   1  16
ATOM     16  S   UNL     1      37.084   6.181  13.121  0.00  0.00    +0.000 S 
BRANCH  16  20
ATOM     17  C   UNL     1      39.994   6.316  16.716  0.00  0.00    +0.000 A 
ATOM     18  C   UNL     1      40.259   5.516  15.641  0.00  0.00    +0.000 A 
ATOM     19  C   UNL     1      39.450   5.457  14.489  0.00  0.00    +0.000 A 
ATOM     20  C   UNL     1      38.331   6.233  14.425  0.00  0.00    +0.000 A 
ATOM     21  N   UNL     1      38.089   7.028  15.522  0.00  0.00    +0.000 NA
ATOM     22  N   UNL     1      38.868   7.056  16.576  0.00  0.00    +0.000 NA
BRANCH  17  27
ATOM     23  C   UNL     1      43.190   6.476  21.523  0.00  0.00    +0.000 C 
ATOM     24  C   UNL     1      42.419   6.468  20.242  0.00  0.00    +0.000 A 
ATOM     25  C   UNL     1      42.983   6.643  18.998  0.00  0.00    +0.000 A 
ATOM     26  C   UNL     1      42.168   6.591  17.852  0.00  0.00    +0.000 A 
ATOM     27  C   UNL     1      40.807   6.372  17.918  0.00  0.00    +0.000 A 
ATOM     28  C   UNL     1      40.279   6.203  19.206  0.00  0.00    +0.000 A 
ATOM     29  C   UNL     1      41.067   6.250  20.320  0.00  0.00    +0.000 A 
ENDBRANCH  17  27
ENDBRANCH  16  20
ENDBRANCH   1  16
TORSDOF 7
ENDMDL
MODEL 4
REMARK VINA RESULT:      -7.5      3.061      7.627
REMARK  Name = 
REMARK  7 active torsions:
REMARK  status: ('A' for Active; 'I' for Inactive)
REMARK    1  A    between atoms: C_5  and  C_6
REMARK    2  A    between atoms: C_9  and  S_10
REMARK    3  A    between atoms: S_10  and  C_11
REMARK    4  A    between atoms: C_11  and  C_12
REMARK    5  A    between atoms: C_16  and  C_17
REMARK    6  A    between atoms: N_19  and  C_20
REMARK    7  A    between atoms: C_20  and  C_22
REMARK                            x       y       z     vdW  Elec       q    Type
REMARK                         _______ _______ _______ _____ _____    ______ ____
ROOT
ATOM      1  C   UNL     1      34.733  -2.938  16.107  0.00  0.00    +0.000 C 
ENDROOT
BRANCH   1   2
ATOM      2  C   UNL     1      35.196  -1.783  16.934  0.00  0.00    +0.000 A 
ATOM      3  C   UNL     1      35.573  -1.892  18.206  0.00  0.00    +0.000 A 
ATOM      4  C   UNL     1      35.967  -0.766  18.955  0.00  0.00    +0.000 A 
ATOM      5  C   UNL     1      35.948   0.498  18.296  0.00  0.00    +0.000 A 
ATOM      6  C   UNL     1      35.571   0.625  17.011  0.00  0.00    +0.000 A 
ATOM      7  C   UNL     1      35.194  -0.507  16.328  0.00  0.00    +0.000 A 
BRANCH   6   8
ATOM      8  C   UNL     1      35.546   1.955  16.404  0.00  0.00    +0.000 C 
ATOM      9  O   UNL     1      34.402   2.525  16.308  0.00  0.00    +0.000 OA
ATOM     10  N   UNL     1      36.652   2.615  15.930  0.00  0.00    +0.000 NA
BRANCH  10  11
ATOM     11  C   UNL     1      36.638   4.011  15.269  0.00  0.00    +0.000 C 
ATOM     12  C   UNL     1      36.950   3.463  13.756  0.00  0.00    +0.000 C 
BRANCH  11  13
ATOM     13  C   UNL     1      38.233   4.366  15.555  0.00  0.00    +0.000 C 
ATOM     14  C   UNL     1      38.910   3.122  15.016  0.00  0.00    +0.000 C 
ATOM     15  C   UNL     1      38.275   4.488  17.045  0.00  0.00    +0.000 C 
ENDBRANCH  11  13
ENDBRANCH  10  11
ENDBRANCH   6   8
ENDBRANCH   1   2
BRANCH   1  16
ATOM     16  S   UNL     1      35.853  -4.201  15.713  0.00  0.00    +0.000 S 
BRANCH  16  20
ATOM     17  C   UNL     1      39.873  -2.115  14.762  0.00  0.00    +0.000 A 
ATOM     18  C   UNL     1      39.649  -2.655  15.997  0.00  0.00    +0.000 A 
ATOM     19  C   UNL     1      38.473  -3.349  16.347  0.00  0.00    +0.000 A 
ATOM     20  C   UNL     1      37.489  -3.497  15.416  0.00  0.00    +0.000 A 
ATOM     21  N   UNL     1      37.742  -2.943  14.182  0.00  0.00    +0.000 NA
ATOM     22  N   UNL     1      38.851  -2.305  13.894  0.00  0.00    +0.000 NA
BRANCH  17  27
ATOM     23  C   UNL     1      44.657   0.745  13.253  0.00  0.00    +0.000 C 
ATOM     24  C   UNL     1      43.383   0.070  13.647  0.00  0.00    +0.000 A 
ATOM     25  C   UNL     1      42.140   0.659  13.573  0.00  0.00    +0.000 A 
ATOM     26  C   UNL     1      41.000  -0.076  13.946  0.00  0.00    +0.000 A 
ATOM     27  C   UNL     1      41.070  -1.380  14.393  0.00  0.00    +0.000 A 
ATOM     28  C   UNL     1      42.356  -1.935  14.453  0.00  0.00    +0.000 A 
ATOM     29  C   UNL     1      43.465  -1.225  14.090  0.00  0.00    +0.000 A 
ENDBRANCH  17  27
ENDBRANCH  16  20
ENDBRANCH   1  16
TORSDOF 7
ENDMDL
MODEL 5
REMARK VINA RESULT:      -7.3     23.624     26.962
REMARK  Name = 
REMARK  7 active torsions:
REMARK  status: ('A' for Active; 'I' for Inactive)
REMARK    1  A    between atoms: C_5  and  C_6
REMARK    2  A    between atoms: C_9  and  S_10
REMARK    3  A    between atoms: S_10  and  C_11
REMARK    4  A    between atoms: C_11  and  C_12
REMARK    5  A    between atoms: C_16  and  C_17
REMARK    6  A    between atoms: N_19  and  C_20
REMARK    7  A    between atoms: C_20  and  C_22
REMARK                            x       y       z     vdW  Elec       q    Type
REMARK                         _______ _______ _______ _____ _____    ______ ____
ROOT
ATOM      1  C   UNL     1      13.011  -0.056  27.585  0.00  0.00    +0.000 C 
ENDROOT
BRANCH   1   2
ATOM      2  C   UNL     1      12.110   0.998  27.029  0.00  0.00    +0.000 A 
ATOM      3  C   UNL     1      12.271   2.300  27.256  0.00  0.00    +0.000 A 
ATOM      4  C   UNL     1      11.371   3.253  26.739  0.00  0.00    +0.000 A 
ATOM      5  C   UNL     1      10.280   2.769  25.961  0.00  0.00    +0.000 A 
ATOM      6  C   UNL     1      10.103   1.457  25.721  0.00  0.00    +0.000 A 
ATOM      7  C   UNL     1      11.011   0.570  26.252  0.00  0.00    +0.000 A 
BRANCH   6   8
ATOM      8  C   UNL     1       8.946   1.024  24.940  0.00  0.00    +0.000 C 
ATOM      9  O   UNL     1       8.050   1.908  24.694  0.00  0.00    +0.000 OA
ATOM     10  N   UNL     1       8.759  -0.251  24.467  0.00  0.00    +0.000 NA
BRANCH  10  11
ATOM     11  C   UNL     1       7.533  -0.727  23.656  0.00  0.00    +0.000 C 
ATOM     12  C   UNL     1       6.798  -1.468  24.919  0.00  0.00    +0.000 C 
BRANCH  11  13
ATOM     13  C   UNL     1       8.209  -2.143  23.116  0.00  0.00    +0.000 C 
ATOM     14  C   UNL     1       9.565  -2.095  23.791  0.00  0.00    +0.000 C 
ATOM     15  C   UNL     1       8.254  -1.935  21.636  0.00  0.00    +0.000 C 
ENDBRANCH  11  13
ENDBRANCH  10  11
ENDBRANCH   6   8
ENDBRANCH   1   2
BRANCH   1  16
ATOM     16  S   UNL     1      14.455   0.418  28.419  0.00  0.00    +0.000 S 
BRANCH  16  20
ATOM     17  C   UNL     1      17.864  -0.076  25.330  0.00  0.00    +0.000 A 
ATOM     18  C   UNL     1      17.656   1.127  25.945  0.00  0.00    +0.000 A 
ATOM     19  C   UNL     1      16.672   1.343  26.930  0.00  0.00    +0.000 A 
ATOM     20  C   UNL     1      15.871   0.307  27.305  0.00  0.00    +0.000 A 
ATOM     21  N   UNL     1      16.103  -0.891  26.670  0.00  0.00    +0.000 NA
ATOM     22  N   UNL     1      17.030  -1.054  25.757  0.00  0.00    +0.000 NA
BRANCH  17  27
ATOM     23  C   UNL     1      21.775  -1.059  21.197  0.00  0.00    +0.000 C 
ATOM     24  C   UNL     1      20.788  -0.734  22.271  0.00  0.00    +0.000 A 
ATOM     25  C   UNL     1      20.440   0.546  22.642  0.00  0.00    +0.000 A 
ATOM     26  C   UNL     1      19.479   0.740  23.651  0.00  0.00    +0.000 A 
ATOM     27  C   UNL     1      18.859  -0.309  24.299  0.00  0.00    +0.000 A 
ATOM     28  C   UNL     1      19.248  -1.592  23.889  0.00  0.00    +0.000 A 
ATOM     29  C   UNL     1      20.179  -1.785  22.909  0.00  0.00    +0.000 A 
ENDBRANCH  17  27
ENDBRANCH  16  20
ENDBRANCH   1  16
TORSDOF 7
ENDMDL
MODEL 6
REMARK VINA RESULT:      -7.2      3.418      4.635
REMARK  Name = 
REMARK  7 active torsions:
REMARK  status: ('A' for Active; 'I' for Inactive)
REMARK    1  A    between atoms: C_5  and  C_6
REMARK    2  A    between atoms: C_9  and  S_10
REMARK    3  A    between atoms: S_10  and  C_11
REMARK    4  A    between atoms: C_11  and  C_12
REMARK    5  A    between atoms: C_16  and  C_17
REMARK    6  A    between atoms: N_19  and  C_20
REMARK    7  A    between atoms: C_20  and  C_22
REMARK                            x       y       z     vdW  Elec       q    Type
REMARK                         _______ _______ _______ _____ _____    ______ ____
ROOT
ATOM      1  C   UNL     1      35.947   0.098  16.011  0.00  0.00    +0.000 C 
ENDROOT
BRANCH   1   2
ATOM      2  C   UNL     1      36.344  -1.301  15.672  0.00  0.00    +0.000 A 
ATOM      3  C   UNL     1      37.594  -1.666  15.397  0.00  0.00    +0.000 A 
ATOM      4  C   UNL     1      37.912  -2.993  15.046  0.00  0.00    +0.000 A 
ATOM      5  C   UNL     1      36.841  -3.932  14.999  0.00  0.00    +0.000 A 
ATOM      6  C   UNL     1      35.572  -3.581  15.276  0.00  0.00    +0.000 A 
ATOM      7  C   UNL     1      35.319  -2.271  15.611  0.00  0.00    +0.000 A 
BRANCH   6   8
ATOM      8  C   UNL     1      34.516  -4.586  15.181  0.00  0.00    +0.000 C 
ATOM      9  O   UNL     1      33.307  -4.160  15.208  0.00  0.00    +0.000 OA
ATOM     10  N   UNL     1      34.734  -5.937  15.074  0.00  0.00    +0.000 NA
BRANCH  10  11
ATOM     11  C   UNL     1      33.628  -7.012  14.992  0.00  0.00    +0.000 C 
ATOM     12  C   UNL     1      34.240  -7.947  16.192  0.00  0.00    +0.000 C 
BRANCH  11  13
ATOM     13  C   UNL     1      34.347  -7.925  13.807  0.00  0.00    +0.000 C 
ATOM     14  C   UNL     1      33.441  -7.635  12.627  0.00  0.00    +0.000 C 
ATOM     15  C   UNL     1      34.221  -9.314  14.348  0.00  0.00    +0.000 C 
ENDBRANCH  11  13
ENDBRANCH  10  11
ENDBRANCH   6   8
ENDBRANCH   1   2
BRANCH   1  16
ATOM     16  S   UNL     1      36.190   1.355  14.842  0.00  0.00    +0.000 S 
BRANCH  16  20
ATOM     17  C   UNL     1      38.762   4.538  17.002  0.00  0.00    +0.000 A 
ATOM     18  C   UNL     1      38.884   4.348  15.654  0.00  0.00    +0.000 A 
ATOM     19  C   UNL     1      38.103   3.435  14.918  0.00  0.00    +0.000 A 
ATOM     20  C   UNL     1      37.168   2.687  15.568  0.00  0.00    +0.000 A 
ATOM     21  N   UNL     1      37.068   2.899  16.925  0.00  0.00    +0.000 NA
ATOM     22  N   UNL     1      37.813   3.760  17.575  0.00  0.00    +0.000 NA
BRANCH  17  27
ATOM     23  C   UNL     1      41.982   8.153  20.149  0.00  0.00    +0.000 C 
ATOM     24  C   UNL     1      41.184   7.242  19.273  0.00  0.00    +0.000 A 
ATOM     25  C   UNL     1      41.534   6.904  17.984  0.00  0.00    +0.000 A 
ATOM     26  C   UNL     1      40.723   6.015  17.255  0.00  0.00    +0.000 A 
ATOM     27  C   UNL     1      39.573   5.459  17.778  0.00  0.00    +0.000 A 
ATOM     28  C   UNL     1      39.258   5.834  19.090  0.00  0.00    +0.000 A 
ATOM     29  C   UNL     1      40.043   6.696  19.803  0.00  0.00    +0.000 A 
ENDBRANCH  17  27
ENDBRANCH  16  20
ENDBRANCH   1  16
TORSDOF 7
ENDMDL
MODEL 7
REMARK VINA RESULT:      -7.1      3.995      9.380
REMARK  Name = 
REMARK  7 active torsions:
REMARK  status: ('A' for Active; 'I' for Inactive)
REMARK    1  A    between atoms: C_5  and  C_6
REMARK    2  A    between atoms: C_9  and  S_10
REMARK    3  A    between atoms: S_10  and  C_11
REMARK    4  A    between atoms: C_11  and  C_12
REMARK    5  A    between atoms: C_16  and  C_17
REMARK    6  A    between atoms: N_19  and  C_20
REMARK    7  A    between atoms: C_20  and  C_22
REMARK                            x       y       z     vdW  Elec       q    Type
REMARK                         _______ _______ _______ _____ _____    ______ ____
ROOT
ATOM      1  C   UNL     1      40.808   6.167  15.861  0.00  0.00    +0.000 C 
ENDROOT
BRANCH   1   2
ATOM      2  C   UNL     1      40.739   6.236  17.351  0.00  0.00    +0.000 A 
ATOM      3  C   UNL     1      39.602   6.167  18.040  0.00  0.00    +0.000 A 
ATOM      4  C   UNL     1      39.586   6.273  19.445  0.00  0.00    +0.000 A 
ATOM      5  C   UNL     1      40.836   6.456  20.102  0.00  0.00    +0.000 A 
ATOM      6  C   UNL     1      41.995   6.526  19.422  0.00  0.00    +0.000 A 
ATOM      7  C   UNL     1      41.953   6.418  18.051  0.00  0.00    +0.000 A 
BRANCH   6   8
ATOM      8  C   UNL     1      43.241   6.744  20.155  0.00  0.00    +0.000 C 
ATOM      9  O   UNL     1      44.331   6.628  19.490  0.00  0.00    +0.000 OA
ATOM     10  N   UNL     1      43.315   7.051  21.490  0.00  0.00    +0.000 NA
BRANCH  10  11
ATOM     11  C   UNL     1      44.624   7.265  22.281  0.00  0.00    +0.000 C 
ATOM     12  C   UNL     1      44.195   6.309  23.541  0.00  0.00    +0.000 C 
BRANCH  11  13
ATOM     13  C   UNL     1      44.143   8.647  23.064  0.00  0.00    +0.000 C 
ATOM     14  C   UNL     1      45.119   9.658  22.497  0.00  0.00    +0.000 C 
ATOM     15  C   UNL     1      44.381   8.305  24.500  0.00  0.00    +0.000 C 
ENDBRANCH  11  13
ENDBRANCH  10  11
ENDBRANCH   6   8
ENDBRANCH   1   2
BRANCH   1  16
ATOM     16  S   UNL     1      39.353   6.346  14.936  0.00  0.00    +0.000 S 
BRANCH  16  20
ATOM     17  C   UNL     1      37.040   2.384  15.537  0.00  0.00    +0.000 A 
ATOM     18  C   UNL     1      36.366   3.552  15.314  0.00  0.00    +0.000 A 
ATOM     19  C   UNL     1      36.999   4.788  15.073  0.00  0.00    +0.000 A 
ATOM     20  C   UNL     1      38.360   4.844  15.060  0.00  0.00    +0.000 A 
ATOM     21  N   UNL     1      39.012   3.654  15.288  0.00  0.00    +0.000 NA
ATOM     22  N   UNL     1      38.387   2.522  15.507  0.00  0.00    +0.000 NA
BRANCH  17  27
ATOM     23  C   UNL     1      34.577  -2.726  16.615  0.00  0.00    +0.000 C 
ATOM     24  C   UNL     1      35.155  -1.370  16.368  0.00  0.00    +0.000 A 
ATOM     25  C   UNL     1      34.736  -0.222  17.002  0.00  0.00    +0.000 A 
ATOM     26  C   UNL     1      35.367   1.002  16.713  0.00  0.00    +0.000 A 
ATOM     27  C   UNL     1      36.403   1.108  15.807  0.00  0.00    +0.000 A 
ATOM     28  C   UNL     1      36.792  -0.087  15.185  0.00  0.00    +0.000 A 
ATOM     29  C   UNL     1      36.183  -1.277  15.465  0.00  0.00    +0.000 A 
ENDBRANCH  17  27
ENDBRANCH  16  20
ENDBRANCH   1  16
TORSDOF 7
ENDMDL
MODEL 8
REMARK VINA RESULT:      -7.0      4.525      8.116
REMARK  Name = 
REMARK  7 active torsions:
REMARK  status: ('A' for Active; 'I' for Inactive)
REMARK    1  A    between atoms: C_5  and  C_6
REMARK    2  A    between atoms: C_9  and  S_10
REMARK    3  A    between atoms: S_10  and  C_11
REMARK    4  A    between atoms: C_11  and  C_12
REMARK    5  A    between atoms: C_16  and  C_17
REMARK    6  A    between atoms: N_19  and  C_20
REMARK    7  A    between atoms: C_20  and  C_22
REMARK                            x       y       z     vdW  Elec       q    Type
REMARK                         _______ _______ _______ _____ _____    ______ ____
ROOT
ATOM      1  C   UNL     1      34.780  -2.927  15.947  0.00  0.00    +0.000 C 
ENDROOT
BRANCH   1   2
ATOM      2  C   UNL     1      35.214  -1.605  16.491  0.00  0.00    +0.000 A 
ATOM      3  C   UNL     1      34.873  -1.157  17.697  0.00  0.00    +0.000 A 
ATOM      4  C   UNL     1      35.278   0.114  18.151  0.00  0.00    +0.000 A 
ATOM      5  C   UNL     1      36.071   0.903  17.267  0.00  0.00    +0.000 A 
ATOM      6  C   UNL     1      36.426   0.464  16.046  0.00  0.00    +0.000 A 
ATOM      7  C   UNL     1      36.002  -0.784  15.653  0.00  0.00    +0.000 A 
BRANCH   6   8
ATOM      8  C   UNL     1      37.216   1.335  15.177  0.00  0.00    +0.000 C 
ATOM      9  O   UNL     1      37.826   2.313  15.738  0.00  0.00    +0.000 OA
ATOM     10  N   UNL     1      37.337   1.177  13.819  0.00  0.00    +0.000 NA
BRANCH  10  11
ATOM     11  C   UNL     1      38.153   2.099  12.886  0.00  0.00    +0.000 C 
ATOM     12  C   UNL     1      37.415   1.607  11.508  0.00  0.00    +0.000 C 
BRANCH  11  13
ATOM     13  C   UNL     1      39.428   1.059  12.668  0.00  0.00    +0.000 C 
ATOM     14  C   UNL     1      40.552   2.034  12.382  0.00  0.00    +0.000 C 
ATOM     15  C   UNL     1      38.993   0.260  11.480  0.00  0.00    +0.000 C 
ENDBRANCH  11  13
ENDBRANCH  10  11
ENDBRANCH   6   8
ENDBRANCH   1   2
BRANCH   1  16
ATOM     16  S   UNL     1      35.894  -4.255  15.959  0.00  0.00    +0.000 S 
BRANCH  16  20
ATOM     17  C   UNL     1      39.887  -2.567  14.342  0.00  0.00    +0.000 A 
ATOM     18  C   UNL     1      39.748  -2.865  15.668  0.00  0.00    +0.000 A 
ATOM     19  C   UNL     1      38.584  -3.428  16.227  0.00  0.00    +0.000 A 
ATOM     20  C   UNL     1      37.522  -3.694  15.416  0.00  0.00    +0.000 A 
ATOM     21  N   UNL     1      37.689  -3.384  14.086  0.00  0.00    +0.000 NA
ATOM     22  N   UNL     1      38.791  -2.861  13.603  0.00  0.00    +0.000 NA
BRANCH  17  27
ATOM     23  C   UNL     1      44.561  -0.171  11.942  0.00  0.00    +0.000 C 
ATOM     24  C   UNL     1      43.377  -0.771  12.631  0.00  0.00    +0.000 A 
ATOM     25  C   UNL     1      43.011  -0.489  13.928  0.00  0.00    +0.000 A 
ATOM     26  C   UNL     1      41.862  -1.091  14.472  0.00  0.00    +0.000 A 
ATOM     27  C   UNL     1      41.072  -1.968  13.755  0.00  0.00    +0.000 A 
ATOM     28  C   UNL     1      41.487  -2.226  12.441  0.00  0.00    +0.000 A 
ATOM     29  C   UNL     1      42.601  -1.641  11.909  0.00  0.00    +0.000 A 
ENDBRANCH  17  27
ENDBRANCH  16  20
ENDBRANCH   1  16
TORSDOF 7
ENDMDL
MODEL 9
REMARK VINA RESULT:      -7.0      2.043      2.854
REMARK  Name = 
REMARK  7 active torsions:
REMARK  status: ('A' for Active; 'I' for Inactive)
REMARK    1  A    between atoms: C_5  and  C_6
REMARK    2  A    between atoms: C_9  and  S_10
REMARK    3  A    between atoms: S_10  and  C_11
REMARK    4  A    between atoms: C_11  and  C_12
REMARK    5  A    between atoms: C_16  and  C_17
REMARK    6  A    between atoms: N_19  and  C_20
REMARK    7  A    between atoms: C_20  and  C_22
REMARK                            x       y       z     vdW  Elec       q    Type
REMARK                         _______ _______ _______ _____ _____    ______ ____
ROOT
ATOM      1  C   UNL     1      37.276   3.295  13.077  0.00  0.00    +0.000 C 
ENDROOT
BRANCH   1   2
ATOM      2  C   UNL     1      38.235   2.242  13.528  0.00  0.00    +0.000 A 
ATOM      3  C   UNL     1      39.485   2.144  13.080  0.00  0.00    +0.000 A 
ATOM      4  C   UNL     1      40.340   1.109  13.508  0.00  0.00    +0.000 A 
ATOM      5  C   UNL     1      39.815   0.172  14.444  0.00  0.00    +0.000 A 
ATOM      6  C   UNL     1      38.555   0.258  14.909  0.00  0.00    +0.000 A 
ATOM      7  C   UNL     1      37.764   1.287  14.455  0.00  0.00    +0.000 A 
BRANCH   6   8
ATOM      8  C   UNL     1      38.069  -0.754  15.846  0.00  0.00    +0.000 C 
ATOM      9  O   UNL     1      38.894  -1.676  16.181  0.00  0.00    +0.000 OA
ATOM     10  N   UNL     1      36.803  -0.781  16.374  0.00  0.00    +0.000 NA
BRANCH  10  11
ATOM     11  C   UNL     1      36.270  -1.853  17.349  0.00  0.00    +0.000 C 
ATOM     12  C   UNL     1      35.201  -2.502  16.289  0.00  0.00    +0.000 C 
BRANCH  11  13
ATOM     13  C   UNL     1      35.110  -0.899  18.056  0.00  0.00    +0.000 C 
ATOM     14  C   UNL     1      34.754   0.024  16.908  0.00  0.00    +0.000 C 
ATOM     15  C   UNL     1      35.867  -0.237  19.163  0.00  0.00    +0.000 C 
ENDBRANCH  11  13
ENDBRANCH  10  11
ENDBRANCH   6   8
ENDBRANCH   1   2
BRANCH   1  16
ATOM     16  S   UNL     1      37.853   4.908  12.809  0.00  0.00    +0.000 S 
BRANCH  16  20
ATOM     17  C   UNL     1      40.352   5.969  16.556  0.00  0.00    +0.000 A 
ATOM     18  C   UNL     1      40.954   5.845  15.336  0.00  0.00    +0.000 A 
ATOM     19  C   UNL     1      40.256   5.573  14.142  0.00  0.00    +0.000 A 
ATOM     20  C   UNL     1      38.903   5.419  14.186  0.00  0.00    +0.000 A 
ATOM     21  N   UNL     1      38.324   5.550  15.428  0.00  0.00    +0.000 NA
ATOM     22  N   UNL     1      39.009   5.805  16.517  0.00  0.00    +0.000 NA
BRANCH  17  27
ATOM     23  C   UNL     1      43.197   7.062  21.461  0.00  0.00    +0.000 C 
ATOM     24  C   UNL     1      42.407   6.746  20.232  0.00  0.00    +0.000 A 
ATOM     25  C   UNL     1      41.076   6.392  20.236  0.00  0.00    +0.000 A 
ATOM     26  C   UNL     1      40.420   6.140  19.017  0.00  0.00    +0.000 A 
ATOM     27  C   UNL     1      41.060   6.228  17.797  0.00  0.00    +0.000 A 
ATOM     28  C   UNL     1      42.414   6.588  17.844  0.00  0.00    +0.000 A 
ATOM     29  C   UNL     1      43.053   6.836  19.026  0.00  0.00    +0.000 A 
ENDBRANCH  17  27
ENDBRANCH  16  20
ENDBRANCH   1  16
TORSDOF 7
ENDMDL
MODEL 10
REMARK VINA RESULT:      -6.9      2.951      4.662
REMARK  Name = 
REMARK  7 active torsions:
REMARK  status: ('A' for Active; 'I' for Inactive)
REMARK    1  A    between atoms: C_5  and  C_6
REMARK    2  A    between atoms: C_9  and  S_10
REMARK    3  A    between atoms: S_10  and  C_11
REMARK    4  A    between atoms: C_11  and  C_12
REMARK    5  A    between atoms: C_16  and  C_17
REMARK    6  A    between atoms: N_19  and  C_20
REMARK    7  A    between atoms: C_20  and  C_22
REMARK                            x       y       z     vdW  Elec       q    Type
REMARK                         _______ _______ _______ _____ _____    ______ ____
ROOT
ATOM      1  C   UNL     1      38.118   4.385  14.836  0.00  0.00    +0.000 C 
ENDROOT
BRANCH   1   2
ATOM      2  C   UNL     1      37.161   3.265  15.084  0.00  0.00    +0.000 A 
ATOM      3  C   UNL     1      35.846   3.434  15.209  0.00  0.00    +0.000 A 
ATOM      4  C   UNL     1      34.989   2.350  15.480  0.00  0.00    +0.000 A 
ATOM      5  C   UNL     1      35.583   1.062  15.613  0.00  0.00    +0.000 A 
ATOM      6  C   UNL     1      36.910   0.873  15.487  0.00  0.00    +0.000 A 
ATOM      7  C   UNL     1      37.700   1.967  15.224  0.00  0.00    +0.000 A 
BRANCH   6   8
ATOM      8  C   UNL     1      37.459  -0.470  15.663  0.00  0.00    +0.000 C 
ATOM      9  O   UNL     1      38.713  -0.553  15.917  0.00  0.00    +0.000 OA
ATOM     10  N   UNL     1      36.730  -1.629  15.567  0.00  0.00    +0.000 NA
BRANCH  10  11
ATOM     11  C   UNL     1      37.301  -3.054  15.733  0.00  0.00    +0.000 C 
ATOM     12  C   UNL     1      36.809  -3.583  14.261  0.00  0.00    +0.000 C 
BRANCH  11  13
ATOM     13  C   UNL     1      35.974  -3.697  16.494  0.00  0.00    +0.000 C 
ATOM     14  C   UNL     1      36.084  -5.154  16.091  0.00  0.00    +0.000 C 
ATOM     15  C   UNL     1      34.842  -2.966  15.844  0.00  0.00    +0.000 C 
ENDBRANCH  11  13
ENDBRANCH  10  11
ENDBRANCH   6   8
ENDBRANCH   1   2
BRANCH   1  16
ATOM     16  S   UNL     1      37.957   5.854  15.741  0.00  0.00    +0.000 S 
BRANCH  16  20
ATOM     17  C   UNL     1      41.375   6.317  18.826  0.00  0.00    +0.000 A 
ATOM     18  C   UNL     1      40.087   6.131  19.243  0.00  0.00    +0.000 A 
ATOM     19  C   UNL     1      39.001   5.933  18.367  0.00  0.00    +0.000 A 
ATOM     20  C   UNL     1      39.226   5.925  17.024  0.00  0.00    +0.000 A 
ATOM     21  N   UNL     1      40.531   6.115  16.632  0.00  0.00    +0.000 NA
ATOM     22  N   UNL     1      41.516   6.295  17.479  0.00  0.00    +0.000 NA
BRANCH  17  27
ATOM     23  C   UNL     1      45.850   7.142  22.380  0.00  0.00    +0.000 C 
ATOM     24  C   UNL     1      44.718   6.983  21.417  0.00  0.00    +0.000 A 
ATOM     25  C   UNL     1      44.720   7.479  20.132  0.00  0.00    +0.000 A 
ATOM     26  C   UNL     1      43.610   7.250  19.297  0.00  0.00    +0.000 A 
ATOM     27  C   UNL     1      42.501   6.543  19.714  0.00  0.00    +0.000 A 
ATOM     28  C   UNL     1      42.544   6.061  21.030  0.00  0.00    +0.000 A 
ATOM     29  C   UNL     1      43.621   6.280  21.842  0.00  0.00    +0.000 A 
ENDBRANCH  17  27
ENDBRANCH  16  20
ENDBRANCH   1  16
TORSDOF 7
ENDMDL
