MODEL 1
REMARK VINA RESULT:      -5.9      0.000      0.000
REMARK  Name = 
REMARK  4 active torsions:
REMARK  status: ('A' for Active; 'I' for Inactive)
REMARK    1  A    between atoms: C_5  and  C_6
REMARK    2  A    between atoms: C_13  and  N_14
REMARK    3  A    between atoms: N_14  and  C_15
REMARK    4  A    between atoms: C_15  and  C_16
REMARK                            x       y       z     vdW  Elec       q    Type
REMARK                         _______ _______ _______ _____ _____    ______ ____
ROOT
ATOM      1  C   UNL     1      16.626  10.472  38.309  0.00  0.00    +0.000 A 
ATOM      2  C   UNL     1      16.306   9.856  39.502  0.00  0.00    +0.000 A 
ATOM      3  S   UNL     1      14.661  10.191  39.699  0.00  0.00    +0.000 S 
ATOM      4  C   UNL     1      14.400  11.104  38.268  0.00  0.00    +0.000 A 
ATOM      5  N   UNL     1      13.291  11.714  37.737  0.00  0.00    +0.000 NA
ATOM      6  C   UNL     1      13.358  12.373  36.568  0.00  0.00    +0.000 A 
ATOM      7  N   UNL     1      14.551  12.392  35.979  0.00  0.00    +0.000 NA
ATOM      8  C   UNL     1      15.673  11.819  36.442  0.00  0.00    +0.000 A 
ATOM      9  C   UNL     1      15.632  11.118  37.672  0.00  0.00    +0.000 A 
ENDROOT
BRANCH   1  14
ATOM     10  C   UNL     1      22.135  10.236  36.565  0.00  0.00    +0.000 C 
ATOM     11  C   UNL     1      20.700  10.275  36.999  0.00  0.00    +0.000 A 
ATOM     12  C   UNL     1      19.770   9.397  36.486  0.00  0.00    +0.000 A 
ATOM     13  C   UNL     1      18.476   9.483  36.922  0.00  0.00    +0.000 A 
ATOM     14  C   UNL     1      18.045  10.398  37.847  0.00  0.00    +0.000 A 
ATOM     15  C   UNL     1      18.995  11.269  38.350  0.00  0.00    +0.000 A 
ATOM     16  C   UNL     1      20.319  11.210  37.929  0.00  0.00    +0.000 A 
ATOM     17  C   UNL     1      21.314  12.153  38.482  0.00  0.00    +0.000 C 
ENDBRANCH   1  14
BRANCH   8  18
ATOM     18  N   UNL     1      16.881  11.908  35.708  0.00  0.00    +0.000 NA
BRANCH  18  19
ATOM     19  C   UNL     1      17.115  11.636  34.347  0.00  0.00    +0.000 C 
BRANCH  19  20
ATOM     20  C   UNL     1      16.436  10.467  33.737  0.00  0.00    +0.000 C 
ATOM     21  O   UNL     1      16.756  10.355  32.399  0.00  0.00    +0.000 OA
ENDBRANCH  19  20
ENDBRANCH  18  19
ENDBRANCH   8  18
TORSDOF 4
ENDMDL
MODEL 2
REMARK VINA RESULT:      -5.9     18.562     20.393
REMARK  Name = 
REMARK  4 active torsions:
REMARK  status: ('A' for Active; 'I' for Inactive)
REMARK    1  A    between atoms: C_5  and  C_6
REMARK    2  A    between atoms: C_13  and  N_14
REMARK    3  A    between atoms: N_14  and  C_15
REMARK    4  A    between atoms: C_15  and  C_16
REMARK                            x       y       z     vdW  Elec       q    Type
REMARK                         _______ _______ _______ _____ _____    ______ ____
ROOT
ATOM      1  C   UNL     1      29.258  23.624  24.710  0.00  0.00    +0.000 A 
ATOM      2  C   UNL     1      30.072  23.998  23.659  0.00  0.00    +0.000 A 
ATOM      3  S   UNL     1      29.020  24.050  22.337  0.00  0.00    +0.000 S 
ATOM      4  C   UNL     1      27.566  23.600  23.132  0.00  0.00    +0.000 A 
ATOM      5  N   UNL     1      26.275  23.434  22.697  0.00  0.00    +0.000 NA
ATOM      6  C   UNL     1      25.299  23.077  23.549  0.00  0.00    +0.000 A 
ATOM      7  N   UNL     1      25.669  22.901  24.815  0.00  0.00    +0.000 NA
ATOM      8  C   UNL     1      26.910  23.046  25.306  0.00  0.00    +0.000 A 
ATOM      9  C   UNL     1      27.958  23.420  24.431  0.00  0.00    +0.000 A 
ENDROOT
BRANCH   1  14
ATOM     10  C   UNL     1      31.704  23.009  29.915  0.00  0.00    +0.000 C 
ATOM     11  C   UNL     1      31.075  23.140  28.559  0.00  0.00    +0.000 A 
ATOM     12  C   UNL     1      30.981  22.064  27.703  0.00  0.00    +0.000 A 
ATOM     13  C   UNL     1      30.397  22.248  26.480  0.00  0.00    +0.000 A 
ATOM     14  C   UNL     1      29.893  23.448  26.051  0.00  0.00    +0.000 A 
ATOM     15  C   UNL     1      29.997  24.515  26.925  0.00  0.00    +0.000 A 
ATOM     16  C   UNL     1      30.586  24.364  28.177  0.00  0.00    +0.000 A 
ATOM     17  C   UNL     1      30.684  25.520  29.093  0.00  0.00    +0.000 C 
ENDBRANCH   1  14
BRANCH   8  18
ATOM     18  N   UNL     1      27.167  22.834  26.683  0.00  0.00    +0.000 NA
BRANCH  18  19
ATOM     19  C   UNL     1      26.554  23.427  27.802  0.00  0.00    +0.000 C 
BRANCH  19  20
ATOM     20  C   UNL     1      27.012  23.021  29.154  0.00  0.00    +0.000 C 
ATOM     21  O   UNL     1      25.965  23.029  30.052  0.00  0.00    +0.000 OA
ENDBRANCH  19  20
ENDBRANCH  18  19
ENDBRANCH   8  18
TORSDOF 4
ENDMDL
MODEL 3
REMARK VINA RESULT:      -5.9     20.415     22.066
REMARK  Name = 
REMARK  4 active torsions:
REMARK  status: ('A' for Active; 'I' for Inactive)
REMARK    1  A    between atoms: C_5  and  C_6
REMARK    2  A    between atoms: C_13  and  N_14
REMARK    3  A    between atoms: N_14  and  C_15
REMARK    4  A    between atoms: C_15  and  C_16
REMARK                            x       y       z     vdW  Elec       q    Type
REMARK                         _______ _______ _______ _____ _____    ______ ____
ROOT
ATOM      1  C   UNL     1      29.035  23.575  25.874  0.00  0.00    +0.000 A 
ATOM      2  C   UNL     1      28.759  23.345  27.207  0.00  0.00    +0.000 A 
ATOM      3  S   UNL     1      27.108  22.979  27.217  0.00  0.00    +0.000 S 
ATOM      4  C   UNL     1      26.791  23.121  25.536  0.00  0.00    +0.000 A 
ATOM      5  N   UNL     1      25.656  22.959  24.781  0.00  0.00    +0.000 NA
ATOM      6  C   UNL     1      25.683  23.125  23.448  0.00  0.00    +0.000 A 
ATOM      7  N   UNL     1      26.863  23.450  22.927  0.00  0.00    +0.000 NA
ATOM      8  C   UNL     1      28.009  23.624  23.605  0.00  0.00    +0.000 A 
ATOM      9  C   UNL     1      28.010  23.457  25.010  0.00  0.00    +0.000 A 
ENDROOT
BRANCH   1  14
ATOM     10  C   UNL     1      34.425  25.154  24.494  0.00  0.00    +0.000 C 
ATOM     11  C   UNL     1      33.033  24.717  24.842  0.00  0.00    +0.000 A 
ATOM     12  C   UNL     1      32.616  23.418  24.645  0.00  0.00    +0.000 A 
ATOM     13  C   UNL     1      31.334  23.082  24.984  0.00  0.00    +0.000 A 
ATOM     14  C   UNL     1      30.430  23.966  25.512  0.00  0.00    +0.000 A 
ATOM     15  C   UNL     1      30.869  25.264  25.702  0.00  0.00    +0.000 A 
ATOM     16  C   UNL     1      32.166  25.641  25.369  0.00  0.00    +0.000 A 
ATOM     17  C   UNL     1      32.610  27.035  25.582  0.00  0.00    +0.000 C 
ENDBRANCH   1  14
BRANCH   8  18
ATOM     18  N   UNL     1      29.203  23.964  22.922  0.00  0.00    +0.000 NA
BRANCH  18  19
ATOM     19  C   UNL     1      29.569  25.186  22.328  0.00  0.00    +0.000 C 
BRANCH  19  20
ATOM     20  C   UNL     1      28.947  25.552  21.032  0.00  0.00    +0.000 C 
ATOM     21  O   UNL     1      29.819  25.324  19.986  0.00  0.00    +0.000 OA
ENDBRANCH  19  20
ENDBRANCH  18  19
ENDBRANCH   8  18
TORSDOF 4
ENDMDL
MODEL 4
REMARK VINA RESULT:      -5.9      2.869      5.417
REMARK  Name = 
REMARK  4 active torsions:
REMARK  status: ('A' for Active; 'I' for Inactive)
REMARK    1  A    between atoms: C_5  and  C_6
REMARK    2  A    between atoms: C_13  and  N_14
REMARK    3  A    between atoms: N_14  and  C_15
REMARK    4  A    between atoms: C_15  and  C_16
REMARK                            x       y       z     vdW  Elec       q    Type
REMARK                         _______ _______ _______ _____ _____    ______ ____
ROOT
ATOM      1  C   UNL     1      17.264  10.688  37.218  0.00  0.00    +0.000 A 
ATOM      2  C   UNL     1      18.600  10.462  36.952  0.00  0.00    +0.000 A 
ATOM      3  S   UNL     1      19.176   9.744  38.369  0.00  0.00    +0.000 S 
ATOM      4  C   UNL     1      17.720   9.738  39.278  0.00  0.00    +0.000 A 
ATOM      5  N   UNL     1      17.406   9.298  40.540  0.00  0.00    +0.000 NA
ATOM      6  C   UNL     1      16.156   9.405  41.020  0.00  0.00    +0.000 A 
ATOM      7  N   UNL     1      15.266   9.958  40.200  0.00  0.00    +0.000 NA
ATOM      8  C   UNL     1      15.503  10.409  38.958  0.00  0.00    +0.000 A 
ATOM      9  C   UNL     1      16.812  10.309  38.428  0.00  0.00    +0.000 A 
ENDROOT
BRANCH   1  14
ATOM     10  C   UNL     1      14.112  13.227  33.087  0.00  0.00    +0.000 C 
ATOM     11  C   UNL     1      14.927  12.593  34.175  0.00  0.00    +0.000 A 
ATOM     12  C   UNL     1      15.191  13.255  35.354  0.00  0.00    +0.000 A 
ATOM     13  C   UNL     1      15.941  12.623  36.308  0.00  0.00    +0.000 A 
ATOM     14  C   UNL     1      16.448  11.358  36.161  0.00  0.00    +0.000 A 
ATOM     15  C   UNL     1      16.171  10.711  34.971  0.00  0.00    +0.000 A 
ATOM     16  C   UNL     1      15.412  11.324  33.979  0.00  0.00    +0.000 A 
ATOM     17  C   UNL     1      15.130  10.610  32.715  0.00  0.00    +0.000 C 
ENDBRANCH   1  14
BRANCH   8  18
ATOM     18  N   UNL     1      14.458  10.971  38.185  0.00  0.00    +0.000 NA
BRANCH  18  19
ATOM     19  C   UNL     1      13.066  10.842  38.348  0.00  0.00    +0.000 C 
BRANCH  19  20
ATOM     20  C   UNL     1      12.186  11.237  37.220  0.00  0.00    +0.000 C 
ATOM     21  O   UNL     1      10.858  11.045  37.541  0.00  0.00    +0.000 OA
ENDBRANCH  19  20
ENDBRANCH  18  19
ENDBRANCH   8  18
TORSDOF 4
ENDMDL
MODEL 5
REMARK VINA RESULT:      -5.8      2.502      3.546
REMARK  Name = 
REMARK  4 active torsions:
REMARK  status: ('A' for Active; 'I' for Inactive)
REMARK    1  A    between atoms: C_5  and  C_6
REMARK    2  A    between atoms: C_13  and  N_14
REMARK    3  A    between atoms: N_14  and  C_15
REMARK    4  A    between atoms: C_15  and  C_16
REMARK                            x       y       z     vdW  Elec       q    Type
REMARK                         _______ _______ _______ _____ _____    ______ ____
ROOT
ATOM      1  C   UNL     1      16.405  11.644  36.456  0.00  0.00    +0.000 A 
ATOM      2  C   UNL     1      16.294  12.275  35.233  0.00  0.00    +0.000 A 
ATOM      3  S   UNL     1      14.631  12.522  35.059  0.00  0.00    +0.000 S 
ATOM      4  C   UNL     1      14.100  11.825  36.535  0.00  0.00    +0.000 A 
ATOM      5  N   UNL     1      12.859  11.663  37.100  0.00  0.00    +0.000 NA
ATOM      6  C   UNL     1      12.717  11.078  38.301  0.00  0.00    +0.000 A 
ATOM      7  N   UNL     1      13.843  10.675  38.887  0.00  0.00    +0.000 NA
ATOM      8  C   UNL     1      15.084  10.801  38.392  0.00  0.00    +0.000 A 
ATOM      9  C   UNL     1      15.263  11.414  37.128  0.00  0.00    +0.000 A 
ENDROOT
BRANCH   1  14
ATOM     10  C   UNL     1      21.699  10.158  38.248  0.00  0.00    +0.000 C 
ATOM     11  C   UNL     1      20.324  10.518  37.768  0.00  0.00    +0.000 A 
ATOM     12  C   UNL     1      19.596   9.665  36.968  0.00  0.00    +0.000 A 
ATOM     13  C   UNL     1      18.348  10.051  36.564  0.00  0.00    +0.000 A 
ATOM     14  C   UNL     1      17.771  11.245  36.910  0.00  0.00    +0.000 A 
ATOM     15  C   UNL     1      18.519  12.086  37.714  0.00  0.00    +0.000 A 
ATOM     16  C   UNL     1      19.792  11.726  38.144  0.00  0.00    +0.000 A 
ATOM     17  C   UNL     1      20.570  12.643  39.003  0.00  0.00    +0.000 C 
ENDBRANCH   1  14
BRANCH   8  18
ATOM     18  N   UNL     1      16.201  10.334  39.127  0.00  0.00    +0.000 NA
BRANCH  18  19
ATOM     19  C   UNL     1      16.232   9.643  40.352  0.00  0.00    +0.000 C 
BRANCH  19  20
ATOM     20  C   UNL     1      17.548   9.209  40.883  0.00  0.00    +0.000 C 
ATOM     21  O   UNL     1      18.238   8.469  39.945  0.00  0.00    +0.000 OA
ENDBRANCH  19  20
ENDBRANCH  18  19
ENDBRANCH   8  18
TORSDOF 4
ENDMDL
MODEL 6
REMARK VINA RESULT:      -5.8     18.285     19.957
REMARK  Name = 
REMARK  4 active torsions:
REMARK  status: ('A' for Active; 'I' for Inactive)
REMARK    1  A    between atoms: C_5  and  C_6
REMARK    2  A    between atoms: C_13  and  N_14
REMARK    3  A    between atoms: N_14  and  C_15
REMARK    4  A    between atoms: C_15  and  C_16
REMARK                            x       y       z     vdW  Elec       q    Type
REMARK                         _______ _______ _______ _____ _____    ______ ____
ROOT
ATOM      1  C   UNL     1      26.309  24.662  27.069  0.00  0.00    +0.000 A 
ATOM      2  C   UNL     1      25.427  25.709  27.245  0.00  0.00    +0.000 A 
ATOM      3  S   UNL     1      24.917  25.539  28.847  0.00  0.00    +0.000 S 
ATOM      4  C   UNL     1      25.827  24.147  29.273  0.00  0.00    +0.000 A 
ATOM      5  N   UNL     1      25.936  23.419  30.431  0.00  0.00    +0.000 NA
ATOM      6  C   UNL     1      26.748  22.350  30.503  0.00  0.00    +0.000 A 
ATOM      7  N   UNL     1      27.421  22.058  29.392  0.00  0.00    +0.000 NA
ATOM      8  C   UNL     1      27.361  22.725  28.229  0.00  0.00    +0.000 A 
ATOM      9  C   UNL     1      26.514  23.854  28.125  0.00  0.00    +0.000 A 
ENDROOT
BRANCH   1  14
ATOM     10  C   UNL     1      28.764  24.067  21.866  0.00  0.00    +0.000 C 
ATOM     11  C   UNL     1      28.106  24.201  23.208  0.00  0.00    +0.000 A 
ATOM     12  C   UNL     1      26.989  23.465  23.538  0.00  0.00    +0.000 A 
ATOM     13  C   UNL     1      26.436  23.633  24.777  0.00  0.00    +0.000 A 
ATOM     14  C   UNL     1      26.930  24.496  25.720  0.00  0.00    +0.000 A 
ATOM     15  C   UNL     1      28.053  25.224  25.369  0.00  0.00    +0.000 A 
ATOM     16  C   UNL     1      28.641  25.079  24.117  0.00  0.00    +0.000 A 
ATOM     17  C   UNL     1      29.840  25.870  23.767  0.00  0.00    +0.000 C 
ENDBRANCH   1  14
BRANCH   8  18
ATOM     18  N   UNL     1      28.140  22.309  27.122  0.00  0.00    +0.000 NA
BRANCH  18  19
ATOM     19  C   UNL     1      29.535  22.149  27.028  0.00  0.00    +0.000 C 
BRANCH  19  20
ATOM     20  C   UNL     1      30.165  22.228  25.687  0.00  0.00    +0.000 C 
ATOM     21  O   UNL     1      31.250  23.080  25.701  0.00  0.00    +0.000 OA
ENDBRANCH  19  20
ENDBRANCH  18  19
ENDBRANCH   8  18
TORSDOF 4
ENDMDL
MODEL 7
REMARK VINA RESULT:      -5.7     19.852     21.556
REMARK  Name = 
REMARK  4 active torsions:
REMARK  status: ('A' for Active; 'I' for Inactive)
REMARK    1  A    between atoms: C_5  and  C_6
REMARK    2  A    between atoms: C_13  and  N_14
REMARK    3  A    between atoms: N_14  and  C_15
REMARK    4  A    between atoms: C_15  and  C_16
REMARK                            x       y       z     vdW  Elec       q    Type
REMARK                         _______ _______ _______ _____ _____    ______ ____
ROOT
ATOM      1  C   UNL     1      29.496  23.576  25.328  0.00  0.00    +0.000 A 
ATOM      2  C   UNL     1      30.693  22.950  25.612  0.00  0.00    +0.000 A 
ATOM      3  S   UNL     1      30.417  22.217  27.110  0.00  0.00    +0.000 S 
ATOM      4  C   UNL     1      28.791  22.711  27.355  0.00  0.00    +0.000 A 
ATOM      5  N   UNL     1      27.888  22.489  28.364  0.00  0.00    +0.000 NA
ATOM      6  C   UNL     1      26.645  22.996  28.304  0.00  0.00    +0.000 A 
ATOM      7  N   UNL     1      26.363  23.714  27.219  0.00  0.00    +0.000 NA
ATOM      8  C   UNL     1      27.196  23.970  26.198  0.00  0.00    +0.000 A 
ATOM      9  C   UNL     1      28.511  23.449  26.235  0.00  0.00    +0.000 A 
ENDROOT
BRANCH   1  14
ATOM     10  C   UNL     1      29.167  26.687  20.463  0.00  0.00    +0.000 C 
ATOM     11  C   UNL     1      29.248  25.855  21.708  0.00  0.00    +0.000 A 
ATOM     12  C   UNL     1      29.148  24.482  21.664  0.00  0.00    +0.000 A 
ATOM     13  C   UNL     1      29.230  23.780  22.835  0.00  0.00    +0.000 A 
ATOM     14  C   UNL     1      29.409  24.365  24.062  0.00  0.00    +0.000 A 
ATOM     15  C   UNL     1      29.508  25.744  24.084  0.00  0.00    +0.000 A 
ATOM     16  C   UNL     1      29.428  26.489  22.912  0.00  0.00    +0.000 A 
ATOM     17  C   UNL     1      29.537  27.963  22.963  0.00  0.00    +0.000 C 
ENDBRANCH   1  14
BRANCH   8  18
ATOM     18  N   UNL     1      26.763  24.746  25.095  0.00  0.00    +0.000 NA
BRANCH  18  19
ATOM     19  C   UNL     1      25.820  24.426  24.101  0.00  0.00    +0.000 C 
BRANCH  19  20
ATOM     20  C   UNL     1      25.657  23.002  23.717  0.00  0.00    +0.000 C 
ATOM     21  O   UNL     1      25.424  22.881  22.362  0.00  0.00    +0.000 OA
ENDBRANCH  19  20
ENDBRANCH  18  19
ENDBRANCH   8  18
TORSDOF 4
ENDMDL
MODEL 8
REMARK VINA RESULT:      -5.6     21.715     23.281
REMARK  Name = 
REMARK  4 active torsions:
REMARK  status: ('A' for Active; 'I' for Inactive)
REMARK    1  A    between atoms: C_5  and  C_6
REMARK    2  A    between atoms: C_13  and  N_14
REMARK    3  A    between atoms: N_14  and  C_15
REMARK    4  A    between atoms: C_15  and  C_16
REMARK                            x       y       z     vdW  Elec       q    Type
REMARK                         _______ _______ _______ _____ _____    ______ ____
ROOT
ATOM      1  C   UNL     1      26.178   5.100  17.875  0.00  0.00    +0.000 A 
ATOM      2  C   UNL     1      26.817   5.423  19.055  0.00  0.00    +0.000 A 
ATOM      3  S   UNL     1      27.934   6.606  18.595  0.00  0.00    +0.000 S 
ATOM      4  C   UNL     1      27.576   6.675  16.917  0.00  0.00    +0.000 A 
ATOM      5  N   UNL     1      28.081   7.422  15.883  0.00  0.00    +0.000 NA
ATOM      6  C   UNL     1      27.605   7.285  14.634  0.00  0.00    +0.000 A 
ATOM      7  N   UNL     1      26.631   6.392  14.478  0.00  0.00    +0.000 NA
ATOM      8  C   UNL     1      26.092   5.631  15.443  0.00  0.00    +0.000 A 
ATOM      9  C   UNL     1      26.574   5.753  16.768  0.00  0.00    +0.000 A 
ENDROOT
BRANCH   1  14
ATOM     10  C   UNL     1      22.171   0.931  18.046  0.00  0.00    +0.000 C 
ATOM     11  C   UNL     1      23.189   2.033  18.007  0.00  0.00    +0.000 A 
ATOM     12  C   UNL     1      22.838   3.345  18.235  0.00  0.00    +0.000 A 
ATOM     13  C   UNL     1      23.812   4.304  18.186  0.00  0.00    +0.000 A 
ATOM     14  C   UNL     1      25.130   4.035  17.923  0.00  0.00    +0.000 A 
ATOM     15  C   UNL     1      25.462   2.711  17.698  0.00  0.00    +0.000 A 
ATOM     16  C   UNL     1      24.497   1.711  17.739  0.00  0.00    +0.000 A 
ATOM     17  C   UNL     1      24.878   0.304  17.495  0.00  0.00    +0.000 C 
ENDBRANCH   1  14
BRANCH   8  18
ATOM     18  N   UNL     1      25.049   4.721  15.141  0.00  0.00    +0.000 NA
BRANCH  18  19
ATOM     19  C   UNL     1      24.911   3.864  14.034  0.00  0.00    +0.000 C 
BRANCH  19  20
ATOM     20  C   UNL     1      24.067   2.653  14.181  0.00  0.00    +0.000 C 
ATOM     21  O   UNL     1      22.816   2.980  14.665  0.00  0.00    +0.000 OA
ENDBRANCH  19  20
ENDBRANCH  18  19
ENDBRANCH   8  18
TORSDOF 4
ENDMDL
MODEL 9
REMARK VINA RESULT:      -5.4     31.627     33.868
REMARK  Name = 
REMARK  4 active torsions:
REMARK  status: ('A' for Active; 'I' for Inactive)
REMARK    1  A    between atoms: C_5  and  C_6
REMARK    2  A    between atoms: C_13  and  N_14
REMARK    3  A    between atoms: N_14  and  C_15
REMARK    4  A    between atoms: C_15  and  C_16
REMARK                            x       y       z     vdW  Elec       q    Type
REMARK                         _______ _______ _______ _____ _____    ______ ____
ROOT
ATOM      1  C   UNL     1      33.352  20.055   7.977  0.00  0.00    +0.000 A 
ATOM      2  C   UNL     1      34.543  19.653   7.408  0.00  0.00    +0.000 A 
ATOM      3  S   UNL     1      35.586  19.496   8.729  0.00  0.00    +0.000 S 
ATOM      4  C   UNL     1      34.501  19.940   9.982  0.00  0.00    +0.000 A 
ATOM      5  N   UNL     1      34.636  20.041  11.345  0.00  0.00    +0.000 NA
ATOM      6  C   UNL     1      33.600  20.410  12.117  0.00  0.00    +0.000 A 
ATOM      7  N   UNL     1      32.461  20.666  11.477  0.00  0.00    +0.000 NA
ATOM      8  C   UNL     1      32.261  20.588  10.152  0.00  0.00    +0.000 A 
ATOM      9  C   UNL     1      33.334  20.201   9.315  0.00  0.00    +0.000 A 
ENDROOT
BRANCH   1  14
ATOM     10  C   UNL     1      28.877  21.025   4.444  0.00  0.00    +0.000 C 
ATOM     11  C   UNL     1      30.045  20.802   5.358  0.00  0.00    +0.000 A 
ATOM     12  C   UNL     1      30.891  21.832   5.708  0.00  0.00    +0.000 A 
ATOM     13  C   UNL     1      31.939  21.564   6.546  0.00  0.00    +0.000 A 
ATOM     14  C   UNL     1      32.201  20.323   7.063  0.00  0.00    +0.000 A 
ATOM     15  C   UNL     1      31.340  19.303   6.699  0.00  0.00    +0.000 A 
ATOM     16  C   UNL     1      30.264  19.539   5.849  0.00  0.00    +0.000 A 
ATOM     17  C   UNL     1      29.359  18.432   5.476  0.00  0.00    +0.000 C 
ENDBRANCH   1  14
BRANCH   8  18
ATOM     18  N   UNL     1      30.990  20.881   9.599  0.00  0.00    +0.000 NA
BRANCH  18  19
ATOM     19  C   UNL     1      29.722  20.819  10.206  0.00  0.00    +0.000 C 
BRANCH  19  20
ATOM     20  C   UNL     1      29.239  22.008  10.951  0.00  0.00    +0.000 C 
ATOM     21  O   UNL     1      27.861  22.024  11.013  0.00  0.00    +0.000 OA
ENDBRANCH  19  20
ENDBRANCH  18  19
ENDBRANCH   8  18
TORSDOF 4
ENDMDL
MODEL 10
REMARK VINA RESULT:      -5.4     21.133     22.760
REMARK  Name = 
REMARK  4 active torsions:
REMARK  status: ('A' for Active; 'I' for Inactive)
REMARK    1  A    between atoms: C_5  and  C_6
REMARK    2  A    between atoms: C_13  and  N_14
REMARK    3  A    between atoms: N_14  and  C_15
REMARK    4  A    between atoms: C_15  and  C_16
REMARK                            x       y       z     vdW  Elec       q    Type
REMARK                         _______ _______ _______ _____ _____    ______ ____
ROOT
ATOM      1  C   UNL     1      18.497  -7.457  26.977  0.00  0.00    +0.000 A 
ATOM      2  C   UNL     1      17.936  -6.204  27.129  0.00  0.00    +0.000 A 
ATOM      3  S   UNL     1      19.021  -5.180  26.335  0.00  0.00    +0.000 S 
ATOM      4  C   UNL     1      20.167  -6.349  25.821  0.00  0.00    +0.000 A 
ATOM      5  N   UNL     1      21.336  -6.263  25.106  0.00  0.00    +0.000 NA
ATOM      6  C   UNL     1      22.058  -7.360  24.824  0.00  0.00    +0.000 A 
ATOM      7  N   UNL     1      21.567  -8.510  25.281  0.00  0.00    +0.000 NA
ATOM      8  C   UNL     1      20.435  -8.666  25.984  0.00  0.00    +0.000 A 
ATOM      9  C   UNL     1      19.655  -7.527  26.296  0.00  0.00    +0.000 A 
ENDROOT
BRANCH   1  14
ATOM     10  C   UNL     1      15.801 -11.926  29.469  0.00  0.00    +0.000 C 
ATOM     11  C   UNL     1      16.485 -10.772  28.798  0.00  0.00    +0.000 A 
ATOM     12  C   UNL     1      16.197 -10.424  27.496  0.00  0.00    +0.000 A 
ATOM     13  C   UNL     1      16.855  -9.361  26.940  0.00  0.00    +0.000 A 
ATOM     14  C   UNL     1      17.791  -8.614  27.605  0.00  0.00    +0.000 A 
ATOM     15  C   UNL     1      18.065  -8.979  28.911  0.00  0.00    +0.000 A 
ATOM     16  C   UNL     1      17.415 -10.054  29.508  0.00  0.00    +0.000 A 
ATOM     17  C   UNL     1      17.726 -10.424  30.905  0.00  0.00    +0.000 C 
ENDBRANCH   1  14
BRANCH   8  18
ATOM     18  N   UNL     1      20.021  -9.954  26.404  0.00  0.00    +0.000 NA
BRANCH  18  19
ATOM     19  C   UNL     1      20.806 -11.058  26.787  0.00  0.00    +0.000 C 
BRANCH  19  20
ATOM     20  C   UNL     1      20.750 -11.506  28.200  0.00  0.00    +0.000 C 
ATOM     21  O   UNL     1      21.134 -10.492  29.054  0.00  0.00    +0.000 OA
ENDBRANCH  19  20
ENDBRANCH  18  19
ENDBRANCH   8  18
TORSDOF 4
ENDMDL
