MODEL 1
REMARK VINA RESULT:      -7.7      0.000      0.000
REMARK  Name = 
REMARK  7 active torsions:
REMARK  status: ('A' for Active; 'I' for Inactive)
REMARK    1  A    between atoms: C_2  and  C_3
REMARK    2  A    between atoms: C_6  and  N_7
REMARK    3  A    between atoms: N_7  and  C_8
REMARK    4  A    between atoms: C_9  and  S_10
REMARK    5  A    between atoms: S_10  and  C_11
REMARK    6  A    between atoms: N_19  and  C_20
REMARK    7  A    between atoms: C_23  and  C_24
REMARK                            x       y       z     vdW  Elec       q    Type
REMARK                         _______ _______ _______ _____ _____    ______ ____
ROOT
ATOM      1  C   UNL     1      37.289   1.612  14.997  0.00  0.00    +0.000 C 
ATOM      2  C   UNL     1      38.324   2.000  14.285  0.00  0.00    +0.000 C 
ATOM      3  C   UNL     1      38.867   3.233  14.824  0.00  0.00    +0.000 C 
ATOM      4  O   UNL     1      39.853   3.879  14.392  0.00  0.00    +0.000 OA
ATOM      5  N   UNL     1      38.073   3.584  15.942  0.00  0.00    +0.000 N 
ATOM      6  C   UNL     1      37.076   2.567  16.058  0.00  0.00    +0.000 C 
ATOM      7  O   UNL     1      36.203   2.600  16.979  0.00  0.00    +0.000 OA
ENDROOT
BRANCH   5   8
ATOM      8  C   UNL     1      38.256   4.725  16.741  0.00  0.00    +0.000 A 
ATOM      9  C   UNL     1      37.924   5.956  16.269  0.00  0.00    +0.000 A 
ATOM     10  C   UNL     1      38.072   7.111  17.017  0.00  0.00    +0.000 A 
ATOM     11  C   UNL     1      38.572   7.005  18.277  0.00  0.00    +0.000 A 
ATOM     12  C   UNL     1      38.915   5.743  18.765  0.00  0.00    +0.000 A 
ATOM     13  C   UNL     1      38.767   4.607  18.023  0.00  0.00    +0.000 A 
BRANCH  11  14
ATOM     14  C   UNL     1      38.790   8.138  19.216  0.00  0.00    +0.000 C 
ATOM     15  C   UNL     1      39.651   7.686  20.395  0.00  0.00    +0.000 C 
ATOM     16  C   UNL     1      37.474   8.697  19.691  0.00  0.00    +0.000 C 
ENDBRANCH  11  14
ENDBRANCH   5   8
BRANCH   1  17
ATOM     17  N   UNL     1      36.493   0.447  14.779  0.00  0.00    +0.000 NA
BRANCH  17  21
ATOM     18  C   UNL     1      37.774  -3.305  16.296  0.00  0.00    +0.000 A 
ATOM     19  C   UNL     1      37.060  -3.242  15.116  0.00  0.00    +0.000 A 
ATOM     20  C   UNL     1      36.641  -2.023  14.612  0.00  0.00    +0.000 A 
ATOM     21  C   UNL     1      36.902  -0.832  15.234  0.00  0.00    +0.000 A 
ATOM     22  C   UNL     1      37.625  -0.896  16.426  0.00  0.00    +0.000 A 
ATOM     23  C   UNL     1      38.044  -2.111  16.931  0.00  0.00    +0.000 A 
BRANCH  18  25
ATOM     24  C   UNL     1      37.162  -5.666  16.812  0.00  0.00    +0.000 C 
ATOM     25  C   UNL     1      38.228  -4.623  16.852  0.00  0.00    +0.000 C 
ENDBRANCH  18  25
ENDBRANCH  17  21
ENDBRANCH   1  17
BRANCH   2  26
ATOM     26  S   UNL     1      38.989   1.159  12.863  0.00  0.00    +0.000 S 
BRANCH  26  27
ATOM     27  C   UNL     1      39.729  -0.400  13.302  0.00  0.00    +0.000 A 
ATOM     28  C   UNL     1      39.476  -1.494  12.528  0.00  0.00    +0.000 A 
ATOM     29  C   UNL     1      40.024  -2.718  12.837  0.00  0.00    +0.000 A 
ATOM     30  C   UNL     1      40.831  -2.840  13.933  0.00  0.00    +0.000 A 
ATOM     31  C   UNL     1      41.079  -1.733  14.704  0.00  0.00    +0.000 A 
ATOM     32  C   UNL     1      40.532  -0.494  14.403  0.00  0.00    +0.000 A 
ENDBRANCH  26  27
ENDBRANCH   2  26
TORSDOF 7
ENDMDL
MODEL 2
REMARK VINA RESULT:      -7.5      1.146      3.424
REMARK  Name = 
REMARK  7 active torsions:
REMARK  status: ('A' for Active; 'I' for Inactive)
REMARK    1  A    between atoms: C_2  and  C_3
REMARK    2  A    between atoms: C_6  and  N_7
REMARK    3  A    between atoms: N_7  and  C_8
REMARK    4  A    between atoms: C_9  and  S_10
REMARK    5  A    between atoms: S_10  and  C_11
REMARK    6  A    between atoms: N_19  and  C_20
REMARK    7  A    between atoms: C_23  and  C_24
REMARK                            x       y       z     vdW  Elec       q    Type
REMARK                         _______ _______ _______ _____ _____    ______ ____
ROOT
ATOM      1  C   UNL     1      38.375   2.360  14.237  0.00  0.00    +0.000 C 
ATOM      2  C   UNL     1      37.334   2.014  14.962  0.00  0.00    +0.000 C 
ATOM      3  C   UNL     1      37.144   2.957  16.048  0.00  0.00    +0.000 C 
ATOM      4  O   UNL     1      36.249   2.931  16.927  0.00  0.00    +0.000 OA
ATOM      5  N   UNL     1      38.167   3.929  15.937  0.00  0.00    +0.000 N 
ATOM      6  C   UNL     1      38.946   3.561  14.798  0.00  0.00    +0.000 C 
ATOM      7  O   UNL     1      39.950   4.248  14.433  0.00  0.00    +0.000 OA
ENDROOT
BRANCH   5   8
ATOM      8  C   UNL     1      38.349   5.017  16.807  0.00  0.00    +0.000 A 
ATOM      9  C   UNL     1      37.982   6.271  16.427  0.00  0.00    +0.000 A 
ATOM     10  C   UNL     1      38.128   7.376  17.249  0.00  0.00    +0.000 A 
ATOM     11  C   UNL     1      38.662   7.196  18.486  0.00  0.00    +0.000 A 
ATOM     12  C   UNL     1      39.041   5.910  18.878  0.00  0.00    +0.000 A 
ATOM     13  C   UNL     1      38.895   4.824  18.065  0.00  0.00    +0.000 A 
BRANCH  11  14
ATOM     14  C   UNL     1      38.882   8.267  19.493  0.00  0.00    +0.000 C 
ATOM     15  C   UNL     1      39.820   7.770  20.593  0.00  0.00    +0.000 C 
ATOM     16  C   UNL     1      37.571   8.734  20.071  0.00  0.00    +0.000 C 
ENDBRANCH  11  14
ENDBRANCH   5   8
BRANCH   1  17
ATOM     17  N   UNL     1      38.875   1.681  13.085  0.00  0.00    +0.000 NA
BRANCH  17  21
ATOM     18  C   UNL     1      41.059  -1.955  13.244  0.00  0.00    +0.000 A 
ATOM     19  C   UNL     1      41.239  -0.997  14.221  0.00  0.00    +0.000 A 
ATOM     20  C   UNL     1      40.528   0.191  14.179  0.00  0.00    +0.000 A 
ATOM     21  C   UNL     1      39.625   0.482  13.193  0.00  0.00    +0.000 A 
ATOM     22  C   UNL     1      39.444  -0.487  12.207  0.00  0.00    +0.000 A 
ATOM     23  C   UNL     1      40.151  -1.673  12.245  0.00  0.00    +0.000 A 
BRANCH  18  25
ATOM     24  C   UNL     1      42.947  -3.277  12.290  0.00  0.00    +0.000 C 
ATOM     25  C   UNL     1      41.828  -3.243  13.279  0.00  0.00    +0.000 C 
ENDBRANCH  18  25
ENDBRANCH  17  21
ENDBRANCH   1  17
BRANCH   2  26
ATOM     26  S   UNL     1      36.287   0.600  14.680  0.00  0.00    +0.000 S 
BRANCH  26  27
ATOM     27  C   UNL     1      37.111  -0.925  15.087  0.00  0.00    +0.000 A 
ATOM     28  C   UNL     1      37.875  -0.983  16.215  0.00  0.00    +0.000 A 
ATOM     29  C   UNL     1      38.533  -2.142  16.562  0.00  0.00    +0.000 A 
ATOM     30  C   UNL     1      38.420  -3.247  15.766  0.00  0.00    +0.000 A 
ATOM     31  C   UNL     1      37.648  -3.177  14.635  0.00  0.00    +0.000 A 
ATOM     32  C   UNL     1      36.980  -2.015  14.275  0.00  0.00    +0.000 A 
ENDBRANCH  26  27
ENDBRANCH   2  26
TORSDOF 7
ENDMDL
MODEL 3
REMARK VINA RESULT:      -7.4      3.154      9.167
REMARK  Name = 
REMARK  7 active torsions:
REMARK  status: ('A' for Active; 'I' for Inactive)
REMARK    1  A    between atoms: C_2  and  C_3
REMARK    2  A    between atoms: C_6  and  N_7
REMARK    3  A    between atoms: N_7  and  C_8
REMARK    4  A    between atoms: C_9  and  S_10
REMARK    5  A    between atoms: S_10  and  C_11
REMARK    6  A    between atoms: N_19  and  C_20
REMARK    7  A    between atoms: C_23  and  C_24
REMARK                            x       y       z     vdW  Elec       q    Type
REMARK                         _______ _______ _______ _____ _____    ______ ____
ROOT
ATOM      1  C   UNL     1      36.810   5.788  14.752  0.00  0.00    +0.000 C 
ATOM      2  C   UNL     1      37.926   5.509  15.391  0.00  0.00    +0.000 C 
ATOM      3  C   UNL     1      37.903   4.137  15.861  0.00  0.00    +0.000 C 
ATOM      4  O   UNL     1      38.801   3.541  16.504  0.00  0.00    +0.000 OA
ATOM      5  N   UNL     1      36.665   3.580  15.458  0.00  0.00    +0.000 N 
ATOM      6  C   UNL     1      35.971   4.614  14.758  0.00  0.00    +0.000 C 
ATOM      7  O   UNL     1      34.817   4.420  14.267  0.00  0.00    +0.000 OA
ENDROOT
BRANCH   5   8
ATOM      8  C   UNL     1      36.240   2.268  15.728  0.00  0.00    +0.000 A 
ATOM      9  C   UNL     1      35.423   2.014  16.785  0.00  0.00    +0.000 A 
ATOM     10  C   UNL     1      34.963   0.745  17.090  0.00  0.00    +0.000 A 
ATOM     11  C   UNL     1      35.349  -0.290  16.296  0.00  0.00    +0.000 A 
ATOM     12  C   UNL     1      36.189  -0.033  15.211  0.00  0.00    +0.000 A 
ATOM     13  C   UNL     1      36.639   1.222  14.914  0.00  0.00    +0.000 A 
BRANCH  11  14
ATOM     14  C   UNL     1      34.946  -1.710  16.475  0.00  0.00    +0.000 C 
ATOM     15  C   UNL     1      33.672  -1.793  17.314  0.00  0.00    +0.000 C 
ATOM     16  C   UNL     1      36.060  -2.506  17.104  0.00  0.00    +0.000 C 
ENDBRANCH  11  14
ENDBRANCH   5   8
BRANCH   1  17
ATOM     17  N   UNL     1      36.464   7.034  14.147  0.00  0.00    +0.000 NA
BRANCH  17  21
ATOM     18  C   UNL     1      34.234   9.986  16.228  0.00  0.00    +0.000 A 
ATOM     19  C   UNL     1      35.601   9.902  16.400  0.00  0.00    +0.000 A 
ATOM     20  C   UNL     1      36.337   8.944  15.723  0.00  0.00    +0.000 A 
ATOM     21  C   UNL     1      35.771   8.044  14.862  0.00  0.00    +0.000 A 
ATOM     22  C   UNL     1      34.389   8.131  14.687  0.00  0.00    +0.000 A 
ATOM     23  C   UNL     1      33.652   9.085  15.361  0.00  0.00    +0.000 A 
BRANCH  18  25
ATOM     24  C   UNL     1      32.570  10.429  18.032  0.00  0.00    +0.000 C 
ATOM     25  C   UNL     1      33.428  11.018  16.961  0.00  0.00    +0.000 C 
ENDBRANCH  18  25
ENDBRANCH  17  21
ENDBRANCH   1  17
BRANCH   2  26
ATOM     26  S   UNL     1      39.286   6.629  15.657  0.00  0.00    +0.000 S 
BRANCH  26  27
ATOM     27  C   UNL     1      39.863   6.581  17.340  0.00  0.00    +0.000 A 
ATOM     28  C   UNL     1      41.201   6.464  17.577  0.00  0.00    +0.000 A 
ATOM     29  C   UNL     1      41.688   6.417  18.864  0.00  0.00    +0.000 A 
ATOM     30  C   UNL     1      40.820   6.489  19.918  0.00  0.00    +0.000 A 
ATOM     31  C   UNL     1      39.476   6.607  19.666  0.00  0.00    +0.000 A 
ATOM     32  C   UNL     1      38.974   6.655  18.374  0.00  0.00    +0.000 A 
ENDBRANCH  26  27
ENDBRANCH   2  26
TORSDOF 7
ENDMDL
MODEL 4
REMARK VINA RESULT:      -7.4      3.746      8.846
REMARK  Name = 
REMARK  7 active torsions:
REMARK  status: ('A' for Active; 'I' for Inactive)
REMARK    1  A    between atoms: C_2  and  C_3
REMARK    2  A    between atoms: C_6  and  N_7
REMARK    3  A    between atoms: N_7  and  C_8
REMARK    4  A    between atoms: C_9  and  S_10
REMARK    5  A    between atoms: S_10  and  C_11
REMARK    6  A    between atoms: N_19  and  C_20
REMARK    7  A    between atoms: C_23  and  C_24
REMARK                            x       y       z     vdW  Elec       q    Type
REMARK                         _______ _______ _______ _____ _____    ______ ____
ROOT
ATOM      1  C   UNL     1      36.135   4.435  14.754  0.00  0.00    +0.000 C 
ATOM      2  C   UNL     1      37.409   4.201  14.983  0.00  0.00    +0.000 C 
ATOM      3  C   UNL     1      37.614   2.796  15.277  0.00  0.00    +0.000 C 
ATOM      4  O   UNL     1      38.702   2.227  15.541  0.00  0.00    +0.000 OA
ATOM      5  N   UNL     1      36.347   2.168  15.213  0.00  0.00    +0.000 N 
ATOM      6  C   UNL     1      35.409   3.194  14.883  0.00  0.00    +0.000 C 
ATOM      7  O   UNL     1      34.173   2.942  14.751  0.00  0.00    +0.000 OA
ENDROOT
BRANCH   5   8
ATOM      8  C   UNL     1      36.104   0.804  15.448  0.00  0.00    +0.000 A 
ATOM      9  C   UNL     1      35.366   0.412  16.521  0.00  0.00    +0.000 A 
ATOM     10  C   UNL     1      35.086  -0.916  16.794  0.00  0.00    +0.000 A 
ATOM     11  C   UNL     1      35.573  -1.865  15.951  0.00  0.00    +0.000 A 
ATOM     12  C   UNL     1      36.331  -1.466  14.849  0.00  0.00    +0.000 A 
ATOM     13  C   UNL     1      36.604  -0.155  14.584  0.00  0.00    +0.000 A 
BRANCH  11  14
ATOM     14  C   UNL     1      35.362  -3.331  16.091  0.00  0.00    +0.000 C 
ATOM     15  C   UNL     1      36.671  -4.076  15.832  0.00  0.00    +0.000 C 
ATOM     16  C   UNL     1      34.277  -3.805  15.159  0.00  0.00    +0.000 C 
ENDBRANCH  11  14
ENDBRANCH   5   8
BRANCH   1  17
ATOM     17  N   UNL     1      35.545   5.694  14.431  0.00  0.00    +0.000 NA
BRANCH  17  21
ATOM     18  C   UNL     1      34.551   6.899  10.484  0.00  0.00    +0.000 A 
ATOM     19  C   UNL     1      35.680   6.139  10.712  0.00  0.00    +0.000 A 
ATOM     20  C   UNL     1      36.011   5.738  11.995  0.00  0.00    +0.000 A 
ATOM     21  C   UNL     1      35.257   6.061  13.091  0.00  0.00    +0.000 A 
ATOM     22  C   UNL     1      34.116   6.829  12.860  0.00  0.00    +0.000 A 
ATOM     23  C   UNL     1      33.784   7.230  11.581  0.00  0.00    +0.000 A 
BRANCH  18  25
ATOM     24  C   UNL     1      34.709   8.700   8.767  0.00  0.00    +0.000 C 
ATOM     25  C   UNL     1      34.188   7.341   9.096  0.00  0.00    +0.000 C 
ENDBRANCH  18  25
ENDBRANCH  17  21
ENDBRANCH   1  17
BRANCH   2  26
ATOM     26  S   UNL     1      38.717   5.411  14.945  0.00  0.00    +0.000 S 
BRANCH  26  27
ATOM     27  C   UNL     1      39.395   5.703  16.565  0.00  0.00    +0.000 A 
ATOM     28  C   UNL     1      40.682   6.141  16.674  0.00  0.00    +0.000 A 
ATOM     29  C   UNL     1      41.246   6.373  17.908  0.00  0.00    +0.000 A 
ATOM     30  C   UNL     1      40.508   6.161  19.039  0.00  0.00    +0.000 A 
ATOM     31  C   UNL     1      39.214   5.721  18.916  0.00  0.00    +0.000 A 
ATOM     32  C   UNL     1      38.635   5.484  17.678  0.00  0.00    +0.000 A 
ENDBRANCH  26  27
ENDBRANCH   2  26
TORSDOF 7
ENDMDL
MODEL 5
REMARK VINA RESULT:      -7.3      3.124      8.734
REMARK  Name = 
REMARK  7 active torsions:
REMARK  status: ('A' for Active; 'I' for Inactive)
REMARK    1  A    between atoms: C_2  and  C_3
REMARK    2  A    between atoms: C_6  and  N_7
REMARK    3  A    between atoms: N_7  and  C_8
REMARK    4  A    between atoms: C_9  and  S_10
REMARK    5  A    between atoms: S_10  and  C_11
REMARK    6  A    between atoms: N_19  and  C_20
REMARK    7  A    between atoms: C_23  and  C_24
REMARK                            x       y       z     vdW  Elec       q    Type
REMARK                         _______ _______ _______ _____ _____    ______ ____
ROOT
ATOM      1  C   UNL     1      37.680   4.057  14.967  0.00  0.00    +0.000 C 
ATOM      2  C   UNL     1      36.400   4.159  14.686  0.00  0.00    +0.000 C 
ATOM      3  C   UNL     1      35.802   2.841  14.591  0.00  0.00    +0.000 C 
ATOM      4  O   UNL     1      34.603   2.568  14.338  0.00  0.00    +0.000 OA
ATOM      5  N   UNL     1      36.830   1.900  14.838  0.00  0.00    +0.000 N 
ATOM      6  C   UNL     1      38.017   2.658  15.077  0.00  0.00    +0.000 C 
ATOM      7  O   UNL     1      39.123   2.091  15.333  0.00  0.00    +0.000 OA
ENDROOT
BRANCH   5   8
ATOM      8  C   UNL     1      36.671   0.504  14.827  0.00  0.00    +0.000 A 
ATOM      9  C   UNL     1      35.985  -0.119  15.822  0.00  0.00    +0.000 A 
ATOM     10  C   UNL     1      35.787  -1.489  15.854  0.00  0.00    +0.000 A 
ATOM     11  C   UNL     1      36.306  -2.240  14.847  0.00  0.00    +0.000 A 
ATOM     12  C   UNL     1      37.012  -1.604  13.824  0.00  0.00    +0.000 A 
ATOM     13  C   UNL     1      37.203  -0.253  13.796  0.00  0.00    +0.000 A 
BRANCH  11  14
ATOM     14  C   UNL     1      36.183  -3.717  14.722  0.00  0.00    +0.000 C 
ATOM     15  C   UNL     1      34.711  -4.125  14.739  0.00  0.00    +0.000 C 
ATOM     16  C   UNL     1      36.949  -4.410  15.819  0.00  0.00    +0.000 C 
ENDBRANCH  11  14
ENDBRANCH   5   8
BRANCH   1  17
ATOM     17  N   UNL     1      38.603   5.133  15.141  0.00  0.00    +0.000 NA
BRANCH  17  21
ATOM     18  C   UNL     1      40.447   6.102  18.839  0.00  0.00    +0.000 A 
ATOM     19  C   UNL     1      39.170   5.581  18.819  0.00  0.00    +0.000 A 
ATOM     20  C   UNL     1      38.561   5.259  17.617  0.00  0.00    +0.000 A 
ATOM     21  C   UNL     1      39.173   5.431  16.405  0.00  0.00    +0.000 A 
ATOM     22  C   UNL     1      40.464   5.957  16.427  0.00  0.00    +0.000 A 
ATOM     23  C   UNL     1      41.074   6.279  17.623  0.00  0.00    +0.000 A 
BRANCH  18  25
ATOM     24  C   UNL     1      42.560   6.785  19.973  0.00  0.00    +0.000 C 
ATOM     25  C   UNL     1      41.113   6.458  20.136  0.00  0.00    +0.000 C 
ENDBRANCH  18  25
ENDBRANCH  17  21
ENDBRANCH   1  17
BRANCH   2  26
ATOM     26  S   UNL     1      35.499   5.678  14.450  0.00  0.00    +0.000 S 
BRANCH  26  27
ATOM     27  C   UNL     1      35.309   6.074  12.725  0.00  0.00    +0.000 A 
ATOM     28  C   UNL     1      34.301   6.911  12.345  0.00  0.00    +0.000 A 
ATOM     29  C   UNL     1      34.116   7.236  11.020  0.00  0.00    +0.000 A 
ATOM     30  C   UNL     1      34.953   6.715  10.073  0.00  0.00    +0.000 A 
ATOM     31  C   UNL     1      35.963   5.875  10.467  0.00  0.00    +0.000 A 
ATOM     32  C   UNL     1      36.159   5.539  11.799  0.00  0.00    +0.000 A 
ENDBRANCH  26  27
ENDBRANCH   2  26
TORSDOF 7
ENDMDL
MODEL 6
REMARK VINA RESULT:      -7.1     26.586     28.905
REMARK  Name = 
REMARK  7 active torsions:
REMARK  status: ('A' for Active; 'I' for Inactive)
REMARK    1  A    between atoms: C_2  and  C_3
REMARK    2  A    between atoms: C_6  and  N_7
REMARK    3  A    between atoms: N_7  and  C_8
REMARK    4  A    between atoms: C_9  and  S_10
REMARK    5  A    between atoms: S_10  and  C_11
REMARK    6  A    between atoms: N_19  and  C_20
REMARK    7  A    between atoms: C_23  and  C_24
REMARK                            x       y       z     vdW  Elec       q    Type
REMARK                         _______ _______ _______ _____ _____    ______ ____
ROOT
ATOM      1  C   UNL     1      26.629  14.087  40.392  0.00  0.00    +0.000 C 
ATOM      2  C   UNL     1      27.847  14.533  40.169  0.00  0.00    +0.000 C 
ATOM      3  C   UNL     1      27.918  15.160  38.862  0.00  0.00    +0.000 C 
ATOM      4  O   UNL     1      28.923  15.691  38.330  0.00  0.00    +0.000 OA
ATOM      5  N   UNL     1      26.629  15.064  38.285  0.00  0.00    +0.000 N 
ATOM      6  C   UNL     1      25.811  14.390  39.242  0.00  0.00    +0.000 C 
ATOM      7  O   UNL     1      24.586  14.151  39.013  0.00  0.00    +0.000 OA
ENDROOT
BRANCH   5   8
ATOM      8  C   UNL     1      26.274  15.539  37.011  0.00  0.00    +0.000 A 
ATOM      9  C   UNL     1      25.593  16.709  36.879  0.00  0.00    +0.000 A 
ATOM     10  C   UNL     1      25.229  17.231  35.649  0.00  0.00    +0.000 A 
ATOM     11  C   UNL     1      25.568  16.539  34.528  0.00  0.00    +0.000 A 
ATOM     12  C   UNL     1      26.266  15.337  34.661  0.00  0.00    +0.000 A 
ATOM     13  C   UNL     1      26.623  14.828  35.876  0.00  0.00    +0.000 A 
BRANCH  11  14
ATOM     14  C   UNL     1      25.262  16.956  33.134  0.00  0.00    +0.000 C 
ATOM     15  C   UNL     1      24.204  18.058  33.134  0.00  0.00    +0.000 C 
ATOM     16  C   UNL     1      24.813  15.776  32.311  0.00  0.00    +0.000 C 
ENDBRANCH  11  14
ENDBRANCH   5   8
BRANCH   1  17
ATOM     17  N   UNL     1      26.170  13.414  41.564  0.00  0.00    +0.000 NA
BRANCH  17  21
ATOM     18  C   UNL     1      27.164   9.330  42.151  0.00  0.00    +0.000 A 
ATOM     19  C   UNL     1      26.889  10.138  43.236  0.00  0.00    +0.000 A 
ATOM     20  C   UNL     1      26.561  11.471  43.054  0.00  0.00    +0.000 A 
ATOM     21  C   UNL     1      26.489  12.056  41.819  0.00  0.00    +0.000 A 
ATOM     22  C   UNL     1      26.766  11.238  40.723  0.00  0.00    +0.000 A 
ATOM     23  C   UNL     1      27.094   9.908  40.902  0.00  0.00    +0.000 A 
BRANCH  18  25
ATOM     24  C   UNL     1      28.685   7.694  43.260  0.00  0.00    +0.000 C 
ATOM     25  C   UNL     1      27.525   7.885  42.340  0.00  0.00    +0.000 C 
ENDBRANCH  18  25
ENDBRANCH  17  21
ENDBRANCH   1  17
BRANCH   2  26
ATOM     26  S   UNL     1      29.228  14.404  41.287  0.00  0.00    +0.000 S 
BRANCH  26  27
ATOM     27  C   UNL     1      29.899  12.755  41.322  0.00  0.00    +0.000 A 
ATOM     28  C   UNL     1      30.105  12.151  42.527  0.00  0.00    +0.000 A 
ATOM     29  C   UNL     1      30.628  10.879  42.597  0.00  0.00    +0.000 A 
ATOM     30  C   UNL     1      30.944  10.213  41.445  0.00  0.00    +0.000 A 
ATOM     31  C   UNL     1      30.731  10.832  40.240  0.00  0.00    +0.000 A 
ATOM     32  C   UNL     1      30.205  12.113  40.156  0.00  0.00    +0.000 A 
ENDBRANCH  26  27
ENDBRANCH   2  26
TORSDOF 7
ENDMDL
MODEL 7
REMARK VINA RESULT:      -7.1      3.120      8.637
REMARK  Name = 
REMARK  7 active torsions:
REMARK  status: ('A' for Active; 'I' for Inactive)
REMARK    1  A    between atoms: C_2  and  C_3
REMARK    2  A    between atoms: C_6  and  N_7
REMARK    3  A    between atoms: N_7  and  C_8
REMARK    4  A    between atoms: C_9  and  S_10
REMARK    5  A    between atoms: S_10  and  C_11
REMARK    6  A    between atoms: N_19  and  C_20
REMARK    7  A    between atoms: C_23  and  C_24
REMARK                            x       y       z     vdW  Elec       q    Type
REMARK                         _______ _______ _______ _____ _____    ______ ____
ROOT
ATOM      1  C   UNL     1      37.674   5.138  16.178  0.00  0.00    +0.000 C 
ATOM      2  C   UNL     1      37.431   5.144  14.885  0.00  0.00    +0.000 C 
ATOM      3  C   UNL     1      37.081   3.809  14.436  0.00  0.00    +0.000 C 
ATOM      4  O   UNL     1      36.789   3.455  13.268  0.00  0.00    +0.000 OA
ATOM      5  N   UNL     1      37.128   2.964  15.570  0.00  0.00    +0.000 N 
ATOM      6  C   UNL     1      37.500   3.793  16.672  0.00  0.00    +0.000 C 
ATOM      7  O   UNL     1      37.627   3.320  17.843  0.00  0.00    +0.000 OA
ENDROOT
BRANCH   5   8
ATOM      8  C   UNL     1      36.867   1.583  15.564  0.00  0.00    +0.000 A 
ATOM      9  C   UNL     1      37.787   0.711  15.071  0.00  0.00    +0.000 A 
ATOM     10  C   UNL     1      37.587  -0.658  15.051  0.00  0.00    +0.000 A 
ATOM     11  C   UNL     1      36.419  -1.148  15.547  0.00  0.00    +0.000 A 
ATOM     12  C   UNL     1      35.473  -0.256  16.053  0.00  0.00    +0.000 A 
ATOM     13  C   UNL     1      35.675   1.094  16.071  0.00  0.00    +0.000 A 
BRANCH  11  14
ATOM     14  C   UNL     1      36.046  -2.586  15.609  0.00  0.00    +0.000 C 
ATOM     15  C   UNL     1      34.692  -2.748  16.299  0.00  0.00    +0.000 C 
ATOM     16  C   UNL     1      37.112  -3.385  16.314  0.00  0.00    +0.000 C 
ENDBRANCH  11  14
ENDBRANCH   5   8
BRANCH   1  17
ATOM     17  N   UNL     1      38.047   6.259  16.979  0.00  0.00    +0.000 NA
BRANCH  17  21
ATOM     18  C   UNL     1      41.750   6.451  19.046  0.00  0.00    +0.000 A 
ATOM     19  C   UNL     1      41.726   6.460  17.666  0.00  0.00    +0.000 A 
ATOM     20  C   UNL     1      40.523   6.401  16.983  0.00  0.00    +0.000 A 
ATOM     21  C   UNL     1      39.312   6.333  17.617  0.00  0.00    +0.000 A 
ATOM     22  C   UNL     1      39.337   6.325  19.012  0.00  0.00    +0.000 A 
ATOM     23  C   UNL     1      40.535   6.384  19.696  0.00  0.00    +0.000 A 
BRANCH  18  25
ATOM     24  C   UNL     1      42.918   6.082  21.218  0.00  0.00    +0.000 C 
ATOM     25  C   UNL     1      43.049   6.511  19.794  0.00  0.00    +0.000 C 
ENDBRANCH  18  25
ENDBRANCH  17  21
ENDBRANCH   1  17
BRANCH   2  26
ATOM     26  S   UNL     1      37.511   6.565  13.813  0.00  0.00    +0.000 S 
BRANCH  26  27
ATOM     27  C   UNL     1      35.989   6.807  12.921  0.00  0.00    +0.000 A 
ATOM     28  C   UNL     1      34.815   6.837  13.614  0.00  0.00    +0.000 A 
ATOM     29  C   UNL     1      33.615   7.016  12.961  0.00  0.00    +0.000 A 
ATOM     30  C   UNL     1      33.602   7.166  11.602  0.00  0.00    +0.000 A 
ATOM     31  C   UNL     1      34.790   7.135  10.917  0.00  0.00    +0.000 A 
ATOM     32  C   UNL     1      36.004   6.955  11.564  0.00  0.00    +0.000 A 
ENDBRANCH  26  27
ENDBRANCH   2  26
TORSDOF 7
ENDMDL
MODEL 8
REMARK VINA RESULT:      -7.1      3.360      9.041
REMARK  Name = 
REMARK  7 active torsions:
REMARK  status: ('A' for Active; 'I' for Inactive)
REMARK    1  A    between atoms: C_2  and  C_3
REMARK    2  A    between atoms: C_6  and  N_7
REMARK    3  A    between atoms: N_7  and  C_8
REMARK    4  A    between atoms: C_9  and  S_10
REMARK    5  A    between atoms: S_10  and  C_11
REMARK    6  A    between atoms: N_19  and  C_20
REMARK    7  A    between atoms: C_23  and  C_24
REMARK                            x       y       z     vdW  Elec       q    Type
REMARK                         _______ _______ _______ _____ _____    ______ ____
ROOT
ATOM      1  C   UNL     1      36.935  -0.639  16.145  0.00  0.00    +0.000 C 
ATOM      2  C   UNL     1      37.791  -1.083  15.250  0.00  0.00    +0.000 C 
ATOM      3  C   UNL     1      37.450  -2.438  14.861  0.00  0.00    +0.000 C 
ATOM      4  O   UNL     1      38.051  -3.162  14.030  0.00  0.00    +0.000 OA
ATOM      5  N   UNL     1      36.298  -2.803  15.596  0.00  0.00    +0.000 N 
ATOM      6  C   UNL     1      35.966  -1.675  16.407  0.00  0.00    +0.000 C 
ATOM      7  O   UNL     1      34.967  -1.694  17.190  0.00  0.00    +0.000 OA
ENDROOT
BRANCH   5   8
ATOM      8  C   UNL     1      35.649  -4.048  15.522  0.00  0.00    +0.000 A 
ATOM      9  C   UNL     1      34.581  -4.219  14.697  0.00  0.00    +0.000 A 
ATOM     10  C   UNL     1      33.913  -5.425  14.575  0.00  0.00    +0.000 A 
ATOM     11  C   UNL     1      34.346  -6.481  15.314  0.00  0.00    +0.000 A 
ATOM     12  C   UNL     1      35.441  -6.309  16.163  0.00  0.00    +0.000 A 
ATOM     13  C   UNL     1      36.097  -5.117  16.279  0.00  0.00    +0.000 A 
BRANCH  11  14
ATOM     14  C   UNL     1      33.751  -7.844  15.301  0.00  0.00    +0.000 C 
ATOM     15  C   UNL     1      33.538  -8.311  13.862  0.00  0.00    +0.000 C 
ATOM     16  C   UNL     1      32.458  -7.869  16.074  0.00  0.00    +0.000 C 
ENDBRANCH  11  14
ENDBRANCH   5   8
BRANCH   1  17
ATOM     17  N   UNL     1      36.941   0.647  16.765  0.00  0.00    +0.000 NA
BRANCH  17  21
ATOM     18  C   UNL     1      35.614   4.065  14.626  0.00  0.00    +0.000 A 
ATOM     19  C   UNL     1      36.787   4.115  15.351  0.00  0.00    +0.000 A 
ATOM     20  C   UNL     1      37.229   3.004  16.050  0.00  0.00    +0.000 A 
ATOM     21  C   UNL     1      36.550   1.816  16.063  0.00  0.00    +0.000 A 
ATOM     22  C   UNL     1      35.365   1.766  15.329  0.00  0.00    +0.000 A 
ATOM     23  C   UNL     1      34.921   2.872  14.631  0.00  0.00    +0.000 A 
BRANCH  18  25
ATOM     24  C   UNL     1      35.940   5.554  12.653  0.00  0.00    +0.000 C 
ATOM     25  C   UNL     1      35.125   5.265  13.870  0.00  0.00    +0.000 C 
ENDBRANCH  18  25
ENDBRANCH  17  21
ENDBRANCH   1  17
BRANCH   2  26
ATOM     26  S   UNL     1      39.178  -0.178  14.592  0.00  0.00    +0.000 S 
BRANCH  26  27
ATOM     27  C   UNL     1      38.675   0.992  13.349  0.00  0.00    +0.000 A 
ATOM     28  C   UNL     1      39.364   2.163  13.226  0.00  0.00    +0.000 A 
ATOM     29  C   UNL     1      39.003   3.097  12.281  0.00  0.00    +0.000 A 
ATOM     30  C   UNL     1      37.941   2.849  11.457  0.00  0.00    +0.000 A 
ATOM     31  C   UNL     1      37.257   1.668  11.590  0.00  0.00    +0.000 A 
ATOM     32  C   UNL     1      37.611   0.719  12.538  0.00  0.00    +0.000 A 
ENDBRANCH  26  27
ENDBRANCH   2  26
TORSDOF 7
ENDMDL
MODEL 9
REMARK VINA RESULT:      -7.0      3.323      6.246
REMARK  Name = 
REMARK  7 active torsions:
REMARK  status: ('A' for Active; 'I' for Inactive)
REMARK    1  A    between atoms: C_2  and  C_3
REMARK    2  A    between atoms: C_6  and  N_7
REMARK    3  A    between atoms: N_7  and  C_8
REMARK    4  A    between atoms: C_9  and  S_10
REMARK    5  A    between atoms: S_10  and  C_11
REMARK    6  A    between atoms: N_19  and  C_20
REMARK    7  A    between atoms: C_23  and  C_24
REMARK                            x       y       z     vdW  Elec       q    Type
REMARK                         _______ _______ _______ _____ _____    ______ ____
ROOT
ATOM      1  C   UNL     1      36.757   4.240  14.754  0.00  0.00    +0.000 C 
ATOM      2  C   UNL     1      36.679   5.499  14.379  0.00  0.00    +0.000 C 
ATOM      3  C   UNL     1      37.665   6.293  15.087  0.00  0.00    +0.000 C 
ATOM      4  O   UNL     1      37.867   7.527  14.973  0.00  0.00    +0.000 OA
ATOM      5  N   UNL     1      38.369   5.414  15.943  0.00  0.00    +0.000 N 
ATOM      6  C   UNL     1      37.804   4.119  15.739  0.00  0.00    +0.000 C 
ATOM      7  O   UNL     1      38.230   3.104  16.372  0.00  0.00    +0.000 OA
ENDROOT
BRANCH   5   8
ATOM      8  C   UNL     1      39.405   5.789  16.817  0.00  0.00    +0.000 A 
ATOM      9  C   UNL     1      40.642   6.078  16.332  0.00  0.00    +0.000 A 
ATOM     10  C   UNL     1      41.695   6.464  17.144  0.00  0.00    +0.000 A 
ATOM     11  C   UNL     1      41.477   6.557  18.483  0.00  0.00    +0.000 A 
ATOM     12  C   UNL     1      40.208   6.260  18.984  0.00  0.00    +0.000 A 
ATOM     13  C   UNL     1      39.174   5.880  18.179  0.00  0.00    +0.000 A 
BRANCH  11  14
ATOM     14  C   UNL     1      42.490   6.961  19.494  0.00  0.00    +0.000 C 
ATOM     15  C   UNL     1      43.895   6.852  18.905  0.00  0.00    +0.000 C 
ATOM     16  C   UNL     1      42.361   6.126  20.742  0.00  0.00    +0.000 C 
ENDBRANCH  11  14
ENDBRANCH   5   8
BRANCH   1  17
ATOM     17  N   UNL     1      35.954   3.159  14.281  0.00  0.00    +0.000 NA
BRANCH  17  21
ATOM     18  C   UNL     1      35.183  -0.297  16.621  0.00  0.00    +0.000 A 
ATOM     19  C   UNL     1      34.656   0.923  16.994  0.00  0.00    +0.000 A 
ATOM     20  C   UNL     1      34.900   2.055  16.235  0.00  0.00    +0.000 A 
ATOM     21  C   UNL     1      35.657   2.037  15.096  0.00  0.00    +0.000 A 
ATOM     22  C   UNL     1      36.188   0.803  14.719  0.00  0.00    +0.000 A 
ATOM     23  C   UNL     1      35.947  -0.328  15.474  0.00  0.00    +0.000 A 
BRANCH  18  25
ATOM     24  C   UNL     1      35.585  -2.744  16.878  0.00  0.00    +0.000 C 
ATOM     25  C   UNL     1      34.927  -1.528  17.441  0.00  0.00    +0.000 C 
ENDBRANCH  18  25
ENDBRANCH  17  21
ENDBRANCH   1  17
BRANCH   2  26
ATOM     26  S   UNL     1      35.540   6.163  13.180  0.00  0.00    +0.000 S 
BRANCH  26  27
ATOM     27  C   UNL     1      34.941   7.770  13.656  0.00  0.00    +0.000 A 
ATOM     28  C   UNL     1      34.131   7.877  14.749  0.00  0.00    +0.000 A 
ATOM     29  C   UNL     1      33.641   9.101  15.146  0.00  0.00    +0.000 A 
ATOM     30  C   UNL     1      33.971  10.223  14.439  0.00  0.00    +0.000 A 
ATOM     31  C   UNL     1      34.787  10.103  13.343  0.00  0.00    +0.000 A 
ATOM     32  C   UNL     1      35.286   8.876  12.932  0.00  0.00    +0.000 A 
ENDBRANCH  26  27
ENDBRANCH   2  26
TORSDOF 7
ENDMDL
MODEL 10
REMARK VINA RESULT:      -7.0      3.595      5.286
REMARK  Name = 
REMARK  7 active torsions:
REMARK  status: ('A' for Active; 'I' for Inactive)
REMARK    1  A    between atoms: C_2  and  C_3
REMARK    2  A    between atoms: C_6  and  N_7
REMARK    3  A    between atoms: N_7  and  C_8
REMARK    4  A    between atoms: C_9  and  S_10
REMARK    5  A    between atoms: S_10  and  C_11
REMARK    6  A    between atoms: N_19  and  C_20
REMARK    7  A    between atoms: C_23  and  C_24
REMARK                            x       y       z     vdW  Elec       q    Type
REMARK                         _______ _______ _______ _____ _____    ______ ____
ROOT
ATOM      1  C   UNL     1      36.736   4.219  14.867  0.00  0.00    +0.000 C 
ATOM      2  C   UNL     1      36.449   5.496  14.736  0.00  0.00    +0.000 C 
ATOM      3  C   UNL     1      37.398   6.301  15.481  0.00  0.00    +0.000 C 
ATOM      4  O   UNL     1      37.422   7.553  15.574  0.00  0.00    +0.000 OA
ATOM      5  N   UNL     1      38.309   5.409  16.095  0.00  0.00    +0.000 N 
ATOM      6  C   UNL     1      37.899   4.095  15.713  0.00  0.00    +0.000 C 
ATOM      7  O   UNL     1      38.526   3.065  16.109  0.00  0.00    +0.000 OA
ENDROOT
BRANCH   5   8
ATOM      8  C   UNL     1      39.381   5.785  16.921  0.00  0.00    +0.000 A 
ATOM      9  C   UNL     1      40.583   6.120  16.378  0.00  0.00    +0.000 A 
ATOM     10  C   UNL     1      41.669   6.510  17.144  0.00  0.00    +0.000 A 
ATOM     11  C   UNL     1      41.524   6.557  18.495  0.00  0.00    +0.000 A 
ATOM     12  C   UNL     1      40.292   6.213  19.055  0.00  0.00    +0.000 A 
ATOM     13  C   UNL     1      39.224   5.830  18.296  0.00  0.00    +0.000 A 
BRANCH  11  14
ATOM     14  C   UNL     1      42.580   6.958  19.461  0.00  0.00    +0.000 C 
ATOM     15  C   UNL     1      43.958   6.841  18.812  0.00  0.00    +0.000 C 
ATOM     16  C   UNL     1      42.501   6.125  20.715  0.00  0.00    +0.000 C 
ENDBRANCH  11  14
ENDBRANCH   5   8
BRANCH   1  17
ATOM     17  N   UNL     1      36.032   3.123  14.283  0.00  0.00    +0.000 NA
BRANCH  17  21
ATOM     18  C   UNL     1      35.217  -0.390  16.520  0.00  0.00    +0.000 A 
ATOM     19  C   UNL     1      36.017  -0.455  15.398  0.00  0.00    +0.000 A 
ATOM     20  C   UNL     1      36.292   0.687  14.664  0.00  0.00    +0.000 A 
ATOM     21  C   UNL     1      35.800   1.920  14.997  0.00  0.00    +0.000 A 
ATOM     22  C   UNL     1      34.992   1.984  16.132  0.00  0.00    +0.000 A 
ATOM     23  C   UNL     1      34.717   0.847  16.866  0.00  0.00    +0.000 A 
BRANCH  18  25
ATOM     24  C   UNL     1      34.691  -2.827  16.465  0.00  0.00    +0.000 C 
ATOM     25  C   UNL     1      34.911  -1.623  17.320  0.00  0.00    +0.000 C 
ENDBRANCH  18  25
ENDBRANCH  17  21
ENDBRANCH   1  17
BRANCH   2  26
ATOM     26  S   UNL     1      35.100   6.172  13.788  0.00  0.00    +0.000 S 
BRANCH  26  27
ATOM     27  C   UNL     1      35.434   6.131  12.040  0.00  0.00    +0.000 A 
ATOM     28  C   UNL     1      34.706   6.930  11.208  0.00  0.00    +0.000 A 
ATOM     29  C   UNL     1      34.929   6.923   9.849  0.00  0.00    +0.000 A 
ATOM     30  C   UNL     1      35.892   6.106   9.327  0.00  0.00    +0.000 A 
ATOM     31  C   UNL     1      36.619   5.308  10.174  0.00  0.00    +0.000 A 
ATOM     32  C   UNL     1      36.403   5.306  11.544  0.00  0.00    +0.000 A 
ENDBRANCH  26  27
ENDBRANCH   2  26
TORSDOF 7
ENDMDL
