MODEL 1
REMARK VINA RESULT:      -6.6      0.000      0.000
REMARK  Name = 
REMARK  3 active torsions:
REMARK  status: ('A' for Active; 'I' for Inactive)
REMARK    1  A    between atoms: C_2  and  C_14
REMARK    2  A    between atoms: N_3  and  N_4
REMARK    3  A    between atoms: C_5  and  C_7
REMARK                            x       y       z     vdW  Elec       q    Type
REMARK                         _______ _______ _______ _____ _____    ______ ____
ROOT
ATOM      1  C   UNL     1      31.286  20.378   7.688  0.00  0.00    +0.000 C 
ATOM      2  C   UNL     1      32.148  20.596   8.903  0.00  0.00    +0.000 C 
ATOM      3  N   UNL     1      33.419  20.429   8.869  0.00  0.00    +0.000 NA
ENDROOT
BRANCH   2   4
ATOM      4  C   UNL     1      31.562  21.005  10.172  0.00  0.00    +0.000 A 
ATOM      5  C   UNL     1      31.663  20.259  11.318  0.00  0.00    +0.000 A 
ATOM      6  C   UNL     1      31.079  20.707  12.502  0.00  0.00    +0.000 A 
ATOM      7  C   UNL     1      30.390  21.892  12.576  0.00  0.00    +0.000 A 
ATOM      8  C   UNL     1      30.287  22.647  11.418  0.00  0.00    +0.000 A 
ATOM      9  C   UNL     1      30.867  22.201  10.246  0.00  0.00    +0.000 A 
ATOM     10  O   UNL     1      29.588  23.837  11.515  0.00  0.00    +0.000 OA
ATOM     11  C   UNL     1      28.554  24.057  12.448  0.00  0.00    +0.000 C 
ATOM     12  C   UNL     1      28.702  23.276  13.710  0.00  0.00    +0.000 C 
ATOM     13  O   UNL     1      29.795  22.386  13.709  0.00  0.00    +0.000 OA
ENDBRANCH   2   4
BRANCH   3  14
ATOM     14  N   UNL     1      34.142  20.653  10.041  0.00  0.00    +0.000 NA
ATOM     15  C   UNL     1      35.222  19.837  10.460  0.00  0.00    +0.000 C 
ATOM     16  O   UNL     1      35.537  18.866   9.733  0.00  0.00    +0.000 OA
BRANCH  15  17
ATOM     17  C   UNL     1      35.987  20.053  11.677  0.00  0.00    +0.000 A 
ATOM     18  C   UNL     1      35.660  19.437  12.875  0.00  0.00    +0.000 A 
ATOM     19  C   UNL     1      36.391  19.650  14.020  0.00  0.00    +0.000 A 
ATOM     20  C   UNL     1      37.483  20.498  13.985  0.00  0.00    +0.000 A 
ATOM     21  C   UNL     1      37.841  21.128  12.821  0.00  0.00    +0.000 A 
ATOM     22  C   UNL     1      37.082  20.887  11.695  0.00  0.00    +0.000 A 
ATOM     23  O   UNL     1      37.454  21.529  10.522  0.00  0.00    +0.000 OA
ENDBRANCH  15  17
ENDBRANCH   3  14
TORSDOF 3
ENDMDL
MODEL 2
REMARK VINA RESULT:      -6.5     29.324     31.436
REMARK  Name = 
REMARK  3 active torsions:
REMARK  status: ('A' for Active; 'I' for Inactive)
REMARK    1  A    between atoms: C_2  and  C_14
REMARK    2  A    between atoms: N_3  and  N_4
REMARK    3  A    between atoms: C_5  and  C_7
REMARK                            x       y       z     vdW  Elec       q    Type
REMARK                         _______ _______ _______ _____ _____    ______ ____
ROOT
ATOM      1  C   UNL     1      16.408   9.917  40.180  0.00  0.00    +0.000 C 
ATOM      2  C   UNL     1      17.604   9.728  39.285  0.00  0.00    +0.000 C 
ATOM      3  N   UNL     1      18.769   9.479  39.757  0.00  0.00    +0.000 NA
ENDROOT
BRANCH   2   4
ATOM      4  C   UNL     1      17.476   9.823  37.837  0.00  0.00    +0.000 A 
ATOM      5  C   UNL     1      18.304   9.159  36.968  0.00  0.00    +0.000 A 
ATOM      6  C   UNL     1      18.128   9.293  35.591  0.00  0.00    +0.000 A 
ATOM      7  C   UNL     1      17.140  10.078  35.051  0.00  0.00    +0.000 A 
ATOM      8  C   UNL     1      16.303  10.750  35.929  0.00  0.00    +0.000 A 
ATOM      9  C   UNL     1      16.479  10.616  37.292  0.00  0.00    +0.000 A 
ATOM     10  O   UNL     1      15.314  11.535  35.363  0.00  0.00    +0.000 OA
ATOM     11  C   UNL     1      15.432  12.138  34.094  0.00  0.00    +0.000 C 
ATOM     12  C   UNL     1      16.296  11.380  33.142  0.00  0.00    +0.000 C 
ATOM     13  O   UNL     1      16.917  10.249  33.708  0.00  0.00    +0.000 OA
ENDBRANCH   2   4
BRANCH   3  14
ATOM     14  N   UNL     1      19.822   9.318  38.856  0.00  0.00    +0.000 NA
ATOM     15  C   UNL     1      21.045  10.027  38.948  0.00  0.00    +0.000 C 
ATOM     16  O   UNL     1      21.179  10.841  39.891  0.00  0.00    +0.000 OA
BRANCH  15  17
ATOM     17  C   UNL     1      22.153   9.873  38.019  0.00  0.00    +0.000 A 
ATOM     18  C   UNL     1      22.146  10.448  36.757  0.00  0.00    +0.000 A 
ATOM     19  C   UNL     1      23.200  10.295  35.888  0.00  0.00    +0.000 A 
ATOM     20  C   UNL     1      24.300   9.550  36.273  0.00  0.00    +0.000 A 
ATOM     21  C   UNL     1      24.348   8.964  37.512  0.00  0.00    +0.000 A 
ATOM     22  C   UNL     1      23.270   9.142  38.354  0.00  0.00    +0.000 A 
ATOM     23  O   UNL     1      23.330   8.546  39.605  0.00  0.00    +0.000 OA
ENDBRANCH  15  17
ENDBRANCH   3  14
TORSDOF 3
ENDMDL
MODEL 3
REMARK VINA RESULT:      -6.4     27.003     29.876
REMARK  Name = 
REMARK  3 active torsions:
REMARK  status: ('A' for Active; 'I' for Inactive)
REMARK    1  A    between atoms: C_2  and  C_14
REMARK    2  A    between atoms: N_3  and  N_4
REMARK    3  A    between atoms: C_5  and  C_7
REMARK                            x       y       z     vdW  Elec       q    Type
REMARK                         _______ _______ _______ _____ _____    ______ ____
ROOT
ATOM      1  C   UNL     1      19.016  23.304  40.733  0.00  0.00    +0.000 C 
ATOM      2  C   UNL     1      18.678  22.548  39.475  0.00  0.00    +0.000 C 
ATOM      3  N   UNL     1      17.952  23.061  38.553  0.00  0.00    +0.000 NA
ENDROOT
BRANCH   2   4
ATOM      4  C   UNL     1      19.170  21.194  39.262  0.00  0.00    +0.000 A 
ATOM      5  C   UNL     1      18.530  20.081  39.746  0.00  0.00    +0.000 A 
ATOM      6  C   UNL     1      19.053  18.811  39.506  0.00  0.00    +0.000 A 
ATOM      7  C   UNL     1      20.208  18.617  38.791  0.00  0.00    +0.000 A 
ATOM      8  C   UNL     1      20.856  19.741  38.302  0.00  0.00    +0.000 A 
ATOM      9  C   UNL     1      20.336  20.998  38.540  0.00  0.00    +0.000 A 
ATOM     10  O   UNL     1      22.018  19.522  37.583  0.00  0.00    +0.000 OA
ATOM     11  C   UNL     1      22.857  18.407  37.784  0.00  0.00    +0.000 C 
ATOM     12  C   UNL     1      22.141  17.190  38.264  0.00  0.00    +0.000 C 
ATOM     13  O   UNL     1      20.771  17.395  38.522  0.00  0.00    +0.000 OA
ENDBRANCH   2   4
BRANCH   3  14
ATOM     14  N   UNL     1      17.688  22.291  37.420  0.00  0.00    +0.000 NA
ATOM     15  C   UNL     1      17.972  22.720  36.100  0.00  0.00    +0.000 C 
ATOM     16  O   UNL     1      18.488  23.852  35.951  0.00  0.00    +0.000 OA
BRANCH  15  17
ATOM     17  C   UNL     1      17.705  21.932  34.907  0.00  0.00    +0.000 A 
ATOM     18  C   UNL     1      16.452  21.890  34.315  0.00  0.00    +0.000 A 
ATOM     19  C   UNL     1      16.211  21.141  33.187  0.00  0.00    +0.000 A 
ATOM     20  C   UNL     1      17.238  20.408  32.622  0.00  0.00    +0.000 A 
ATOM     21  C   UNL     1      18.493  20.421  33.176  0.00  0.00    +0.000 A 
ATOM     22  C   UNL     1      18.693  21.186  34.307  0.00  0.00    +0.000 A 
ATOM     23  O   UNL     1      19.966  21.193  34.859  0.00  0.00    +0.000 OA
ENDBRANCH  15  17
ENDBRANCH   3  14
TORSDOF 3
ENDMDL
MODEL 4
REMARK VINA RESULT:      -6.4     13.503     16.166
REMARK  Name = 
REMARK  3 active torsions:
REMARK  status: ('A' for Active; 'I' for Inactive)
REMARK    1  A    between atoms: C_2  and  C_14
REMARK    2  A    between atoms: N_3  and  N_4
REMARK    3  A    between atoms: C_5  and  C_7
REMARK                            x       y       z     vdW  Elec       q    Type
REMARK                         _______ _______ _______ _____ _____    ______ ____
ROOT
ATOM      1  C   UNL     1      33.906  24.584  24.809  0.00  0.00    +0.000 C 
ATOM      2  C   UNL     1      32.627  24.379  25.577  0.00  0.00    +0.000 C 
ATOM      3  N   UNL     1      32.578  24.503  26.852  0.00  0.00    +0.000 NA
ENDROOT
BRANCH   2   4
ATOM      4  C   UNL     1      31.391  24.029  24.891  0.00  0.00    +0.000 A 
ATOM      5  C   UNL     1      30.944  22.738  24.768  0.00  0.00    +0.000 A 
ATOM      6  C   UNL     1      29.750  22.470  24.099  0.00  0.00    +0.000 A 
ATOM      7  C   UNL     1      28.982  23.462  23.544  0.00  0.00    +0.000 A 
ATOM      8  C   UNL     1      29.434  24.768  23.668  0.00  0.00    +0.000 A 
ATOM      9  C   UNL     1      30.616  25.031  24.331  0.00  0.00    +0.000 A 
ATOM     10  O   UNL     1      28.644  25.752  23.101  0.00  0.00    +0.000 OA
ATOM     11  C   UNL     1      27.801  25.530  21.993  0.00  0.00    +0.000 C 
ATOM     12  C   UNL     1      27.283  24.135  21.897  0.00  0.00    +0.000 C 
ATOM     13  O   UNL     1      27.801  23.262  22.875  0.00  0.00    +0.000 OA
ENDBRANCH   2   4
BRANCH   3  14
ATOM     14  N   UNL     1      31.351  24.296  27.484  0.00  0.00    +0.000 NA
ATOM     15  C   UNL     1      31.023  23.108  28.184  0.00  0.00    +0.000 C 
ATOM     16  O   UNL     1      31.886  22.201  28.232  0.00  0.00    +0.000 OA
BRANCH  15  17
ATOM     17  C   UNL     1      29.751  22.874  28.848  0.00  0.00    +0.000 A 
ATOM     18  C   UNL     1      28.594  22.574  28.146  0.00  0.00    +0.000 A 
ATOM     19  C   UNL     1      27.397  22.355  28.786  0.00  0.00    +0.000 A 
ATOM     20  C   UNL     1      27.336  22.432  30.165  0.00  0.00    +0.000 A 
ATOM     21  C   UNL     1      28.457  22.726  30.899  0.00  0.00    +0.000 A 
ATOM     22  C   UNL     1      29.638  22.939  30.218  0.00  0.00    +0.000 A 
ATOM     23  O   UNL     1      30.766  23.235  30.970  0.00  0.00    +0.000 OA
ENDBRANCH  15  17
ENDBRANCH   3  14
TORSDOF 3
ENDMDL
MODEL 5
REMARK VINA RESULT:      -6.4     13.588     16.569
REMARK  Name = 
REMARK  3 active torsions:
REMARK  status: ('A' for Active; 'I' for Inactive)
REMARK    1  A    between atoms: C_2  and  C_14
REMARK    2  A    between atoms: N_3  and  N_4
REMARK    3  A    between atoms: C_5  and  C_7
REMARK                            x       y       z     vdW  Elec       q    Type
REMARK                         _______ _______ _______ _____ _____    ______ ____
ROOT
ATOM      1  C   UNL     1      23.649  25.929  26.638  0.00  0.00    +0.000 C 
ATOM      2  C   UNL     1      25.061  25.408  26.693  0.00  0.00    +0.000 C 
ATOM      3  N   UNL     1      25.744  25.420  27.777  0.00  0.00    +0.000 NA
ENDROOT
BRANCH   2   4
ATOM      4  C   UNL     1      25.704  24.867  25.503  0.00  0.00    +0.000 A 
ATOM      5  C   UNL     1      25.576  23.559  25.112  0.00  0.00    +0.000 A 
ATOM      6  C   UNL     1      26.218  23.104  23.961  0.00  0.00    +0.000 A 
ATOM      7  C   UNL     1      26.993  23.925  23.181  0.00  0.00    +0.000 A 
ATOM      8  C   UNL     1      27.124  25.248  23.576  0.00  0.00    +0.000 A 
ATOM      9  C   UNL     1      26.487  25.697  24.716  0.00  0.00    +0.000 A 
ATOM     10  O   UNL     1      27.910  26.057  22.775  0.00  0.00    +0.000 OA
ATOM     11  C   UNL     1      28.978  25.575  21.993  0.00  0.00    +0.000 C 
ATOM     12  C   UNL     1      28.804  24.166  21.533  0.00  0.00    +0.000 C 
ATOM     13  O   UNL     1      27.649  23.537  22.040  0.00  0.00    +0.000 OA
ENDBRANCH   2   4
BRANCH   3  14
ATOM     14  N   UNL     1      27.046  24.917  27.738  0.00  0.00    +0.000 NA
ATOM     15  C   UNL     1      27.413  23.660  28.278  0.00  0.00    +0.000 C 
ATOM     16  O   UNL     1      26.516  22.970  28.816  0.00  0.00    +0.000 OA
BRANCH  15  17
ATOM     17  C   UNL     1      28.762  23.119  28.248  0.00  0.00    +0.000 A 
ATOM     18  C   UNL     1      29.289  22.506  27.122  0.00  0.00    +0.000 A 
ATOM     19  C   UNL     1      30.566  21.998  27.106  0.00  0.00    +0.000 A 
ATOM     20  C   UNL     1      31.354  22.096  28.238  0.00  0.00    +0.000 A 
ATOM     21  C   UNL     1      30.872  22.695  29.375  0.00  0.00    +0.000 A 
ATOM     22  C   UNL     1      29.585  23.192  29.349  0.00  0.00    +0.000 A 
ATOM     23  O   UNL     1      29.109  23.796  30.503  0.00  0.00    +0.000 OA
ENDBRANCH  15  17
ENDBRANCH   3  14
TORSDOF 3
ENDMDL
MODEL 6
REMARK VINA RESULT:      -6.3     14.527     16.817
REMARK  Name = 
REMARK  3 active torsions:
REMARK  status: ('A' for Active; 'I' for Inactive)
REMARK    1  A    between atoms: C_2  and  C_14
REMARK    2  A    between atoms: N_3  and  N_4
REMARK    3  A    between atoms: C_5  and  C_7
REMARK                            x       y       z     vdW  Elec       q    Type
REMARK                         _______ _______ _______ _____ _____    ______ ____
ROOT
ATOM      1  C   UNL     1      26.752  21.750  30.424  0.00  0.00    +0.000 C 
ATOM      2  C   UNL     1      27.583  22.429  29.368  0.00  0.00    +0.000 C 
ATOM      3  N   UNL     1      28.856  22.537  29.475  0.00  0.00    +0.000 NA
ENDROOT
BRANCH   2   4
ATOM      4  C   UNL     1      26.963  22.994  28.178  0.00  0.00    +0.000 A 
ATOM      5  C   UNL     1      27.297  22.608  26.905  0.00  0.00    +0.000 A 
ATOM      6  C   UNL     1      26.664  23.188  25.806  0.00  0.00    +0.000 A 
ATOM      7  C   UNL     1      25.697  24.153  25.942  0.00  0.00    +0.000 A 
ATOM      8  C   UNL     1      25.359  24.544  27.229  0.00  0.00    +0.000 A 
ATOM      9  C   UNL     1      25.986  23.968  28.316  0.00  0.00    +0.000 A 
ATOM     10  O   UNL     1      24.382  25.518  27.343  0.00  0.00    +0.000 OA
ATOM     11  C   UNL     1      24.137  26.492  26.354  0.00  0.00    +0.000 C 
ATOM     12  C   UNL     1      24.459  26.043  24.969  0.00  0.00    +0.000 C 
ATOM     13  O   UNL     1      25.040  24.760  24.903  0.00  0.00    +0.000 OA
ENDBRANCH   2   4
BRANCH   3  14
ATOM     14  N   UNL     1      29.549  23.181  28.449  0.00  0.00    +0.000 NA
ATOM     15  C   UNL     1      30.837  22.789  28.011  0.00  0.00    +0.000 C 
ATOM     16  O   UNL     1      31.376  21.811  28.579  0.00  0.00    +0.000 OA
BRANCH  15  17
ATOM     17  C   UNL     1      31.575  23.448  26.945  0.00  0.00    +0.000 A 
ATOM     18  C   UNL     1      32.546  24.404  27.199  0.00  0.00    +0.000 A 
ATOM     19  C   UNL     1      33.236  25.020  26.182  0.00  0.00    +0.000 A 
ATOM     20  C   UNL     1      32.964  24.683  24.869  0.00  0.00    +0.000 A 
ATOM     21  C   UNL     1      32.011  23.742  24.573  0.00  0.00    +0.000 A 
ATOM     22  C   UNL     1      31.340  23.147  25.622  0.00  0.00    +0.000 A 
ATOM     23  O   UNL     1      30.380  22.196  25.311  0.00  0.00    +0.000 OA
ENDBRANCH  15  17
ENDBRANCH   3  14
TORSDOF 3
ENDMDL
MODEL 7
REMARK VINA RESULT:      -6.3     13.201     16.235
REMARK  Name = 
REMARK  3 active torsions:
REMARK  status: ('A' for Active; 'I' for Inactive)
REMARK    1  A    between atoms: C_2  and  C_14
REMARK    2  A    between atoms: N_3  and  N_4
REMARK    3  A    between atoms: C_5  and  C_7
REMARK                            x       y       z     vdW  Elec       q    Type
REMARK                         _______ _______ _______ _____ _____    ______ ____
ROOT
ATOM      1  C   UNL     1      29.007  24.564  21.484  0.00  0.00    +0.000 C 
ATOM      2  C   UNL     1      28.886  24.479  22.982  0.00  0.00    +0.000 C 
ATOM      3  N   UNL     1      27.746  24.460  23.567  0.00  0.00    +0.000 NA
ENDROOT
BRANCH   2   4
ATOM      4  C   UNL     1      30.071  24.417  23.826  0.00  0.00    +0.000 A 
ATOM      5  C   UNL     1      30.622  23.237  24.257  0.00  0.00    +0.000 A 
ATOM      6  C   UNL     1      31.760  23.247  25.064  0.00  0.00    +0.000 A 
ATOM      7  C   UNL     1      32.370  24.412  25.457  0.00  0.00    +0.000 A 
ATOM      8  C   UNL     1      31.813  25.605  25.022  0.00  0.00    +0.000 A 
ATOM      9  C   UNL     1      30.687  25.594  24.223  0.00  0.00    +0.000 A 
ATOM     10  O   UNL     1      32.444  26.767  25.430  0.00  0.00    +0.000 OA
ATOM     11  C   UNL     1      33.184  26.871  26.625  0.00  0.00    +0.000 C 
ATOM     12  C   UNL     1      33.818  25.592  27.057  0.00  0.00    +0.000 C 
ATOM     13  O   UNL     1      33.488  24.486  26.248  0.00  0.00    +0.000 OA
ENDBRANCH   2   4
BRANCH   3  14
ATOM     14  N   UNL     1      27.724  24.379  24.961  0.00  0.00    +0.000 NA
ATOM     15  C   UNL     1      26.883  23.495  25.679  0.00  0.00    +0.000 C 
ATOM     16  O   UNL     1      26.120  22.749  25.021  0.00  0.00    +0.000 OA
BRANCH  15  17
ATOM     17  C   UNL     1      26.845  23.397  27.129  0.00  0.00    +0.000 A 
ATOM     18  C   UNL     1      25.891  24.054  27.891  0.00  0.00    +0.000 A 
ATOM     19  C   UNL     1      25.866  23.954  29.262  0.00  0.00    +0.000 A 
ATOM     20  C   UNL     1      26.813  23.180  29.907  0.00  0.00    +0.000 A 
ATOM     21  C   UNL     1      27.776  22.513  29.192  0.00  0.00    +0.000 A 
ATOM     22  C   UNL     1      27.765  22.640  27.818  0.00  0.00    +0.000 A 
ATOM     23  O   UNL     1      28.742  21.960  27.105  0.00  0.00    +0.000 OA
ENDBRANCH  15  17
ENDBRANCH   3  14
TORSDOF 3
ENDMDL
MODEL 8
REMARK VINA RESULT:      -6.3     29.438     31.698
REMARK  Name = 
REMARK  3 active torsions:
REMARK  status: ('A' for Active; 'I' for Inactive)
REMARK    1  A    between atoms: C_2  and  C_14
REMARK    2  A    between atoms: N_3  and  N_4
REMARK    3  A    between atoms: C_5  and  C_7
REMARK                            x       y       z     vdW  Elec       q    Type
REMARK                         _______ _______ _______ _____ _____    ______ ____
ROOT
ATOM      1  C   UNL     1      17.877   7.606  40.997  0.00  0.00    +0.000 C 
ATOM      2  C   UNL     1      18.744   8.379  40.039  0.00  0.00    +0.000 C 
ATOM      3  N   UNL     1      20.022   8.374  40.129  0.00  0.00    +0.000 NA
ENDROOT
BRANCH   2   4
ATOM      4  C   UNL     1      18.153   9.168  38.967  0.00  0.00    +0.000 A 
ATOM      5  C   UNL     1      17.128  10.057  39.169  0.00  0.00    +0.000 A 
ATOM      6  C   UNL     1      16.607  10.783  38.099  0.00  0.00    +0.000 A 
ATOM      7  C   UNL     1      17.084  10.647  36.819  0.00  0.00    +0.000 A 
ATOM      8  C   UNL     1      18.120   9.748  36.613  0.00  0.00    +0.000 A 
ATOM      9  C   UNL     1      18.635   9.030  37.675  0.00  0.00    +0.000 A 
ATOM     10  O   UNL     1      18.585   9.626  35.316  0.00  0.00    +0.000 OA
ATOM     11  C   UNL     1      17.787   9.866  34.179  0.00  0.00    +0.000 C 
ATOM     12  C   UNL     1      16.706  10.870  34.398  0.00  0.00    +0.000 C 
ATOM     13  O   UNL     1      16.614  11.331  35.727  0.00  0.00    +0.000 OA
ENDBRANCH   2   4
BRANCH   3  14
ATOM     14  N   UNL     1      20.749   9.118  39.199  0.00  0.00    +0.000 NA
ATOM     15  C   UNL     1      22.146   8.979  39.007  0.00  0.00    +0.000 C 
ATOM     16  O   UNL     1      22.752   8.141  39.715  0.00  0.00    +0.000 OA
BRANCH  15  17
ATOM     17  C   UNL     1      22.920   9.745  38.045  0.00  0.00    +0.000 A 
ATOM     18  C   UNL     1      23.165   9.287  36.759  0.00  0.00    +0.000 A 
ATOM     19  C   UNL     1      23.899  10.020  35.858  0.00  0.00    +0.000 A 
ATOM     20  C   UNL     1      24.411  11.249  36.233  0.00  0.00    +0.000 A 
ATOM     21  C   UNL     1      24.193  11.740  37.496  0.00  0.00    +0.000 A 
ATOM     22  C   UNL     1      23.451  10.973  38.369  0.00  0.00    +0.000 A 
ATOM     23  O   UNL     1      23.236  11.480  39.643  0.00  0.00    +0.000 OA
ENDBRANCH  15  17
ENDBRANCH   3  14
TORSDOF 3
ENDMDL
MODEL 9
REMARK VINA RESULT:      -6.2     13.849     17.474
REMARK  Name = 
REMARK  3 active torsions:
REMARK  status: ('A' for Active; 'I' for Inactive)
REMARK    1  A    between atoms: C_2  and  C_14
REMARK    2  A    between atoms: N_3  and  N_4
REMARK    3  A    between atoms: C_5  and  C_7
REMARK                            x       y       z     vdW  Elec       q    Type
REMARK                         _______ _______ _______ _____ _____    ______ ____
ROOT
ATOM      1  C   UNL     1      31.196  21.894  27.810  0.00  0.00    +0.000 C 
ATOM      2  C   UNL     1      30.032  22.838  27.671  0.00  0.00    +0.000 C 
ATOM      3  N   UNL     1      29.234  23.075  28.646  0.00  0.00    +0.000 NA
ENDROOT
BRANCH   2   4
ATOM      4  C   UNL     1      29.769  23.521  26.412  0.00  0.00    +0.000 A 
ATOM      5  C   UNL     1      30.331  24.728  26.084  0.00  0.00    +0.000 A 
ATOM      6  C   UNL     1      30.038  25.329  24.860  0.00  0.00    +0.000 A 
ATOM      7  C   UNL     1      29.191  24.754  23.945  0.00  0.00    +0.000 A 
ATOM      8  C   UNL     1      28.623  23.534  24.276  0.00  0.00    +0.000 A 
ATOM      9  C   UNL     1      28.914  22.940  25.489  0.00  0.00    +0.000 A 
ATOM     10  O   UNL     1      27.773  22.973  23.339  0.00  0.00    +0.000 OA
ATOM     11  C   UNL     1      27.028  23.730  22.414  0.00  0.00    +0.000 C 
ATOM     12  C   UNL     1      27.673  25.019  22.028  0.00  0.00    +0.000 C 
ATOM     13  O   UNL     1      28.865  25.295  22.727  0.00  0.00    +0.000 OA
ENDBRANCH   2   4
BRANCH   3  14
ATOM     14  N   UNL     1      28.180  23.964  28.431  0.00  0.00    +0.000 NA
ATOM     15  C   UNL     1      26.845  23.703  28.826  0.00  0.00    +0.000 C 
ATOM     16  O   UNL     1      26.607  22.613  29.398  0.00  0.00    +0.000 OA
BRANCH  15  17
ATOM     17  C   UNL     1      25.734  24.615  28.611  0.00  0.00    +0.000 A 
ATOM     18  C   UNL     1      25.222  25.410  29.625  0.00  0.00    +0.000 A 
ATOM     19  C   UNL     1      24.171  26.270  29.409  0.00  0.00    +0.000 A 
ATOM     20  C   UNL     1      23.603  26.351  28.150  0.00  0.00    +0.000 A 
ATOM     21  C   UNL     1      24.079  25.582  27.118  0.00  0.00    +0.000 A 
ATOM     22  C   UNL     1      25.135  24.733  27.377  0.00  0.00    +0.000 A 
ATOM     23  O   UNL     1      25.608  23.960  26.327  0.00  0.00    +0.000 OA
ENDBRANCH  15  17
ENDBRANCH   3  14
TORSDOF 3
ENDMDL
MODEL 10
REMARK VINA RESULT:      -6.2     29.204     32.070
REMARK  Name = 
REMARK  3 active torsions:
REMARK  status: ('A' for Active; 'I' for Inactive)
REMARK    1  A    between atoms: C_2  and  C_14
REMARK    2  A    between atoms: N_3  and  N_4
REMARK    3  A    between atoms: C_5  and  C_7
REMARK                            x       y       z     vdW  Elec       q    Type
REMARK                         _______ _______ _______ _____ _____    ______ ____
ROOT
ATOM      1  C   UNL     1      20.157  10.151  42.189  0.00  0.00    +0.000 C 
ATOM      2  C   UNL     1      19.910  10.296  40.710  0.00  0.00    +0.000 C 
ATOM      3  N   UNL     1      18.756  10.083  40.194  0.00  0.00    +0.000 NA
ENDROOT
BRANCH   2   4
ATOM      4  C   UNL     1      20.985  10.685  39.808  0.00  0.00    +0.000 A 
ATOM      5  C   UNL     1      21.373  11.987  39.624  0.00  0.00    +0.000 A 
ATOM      6  C   UNL     1      22.411  12.293  38.744  0.00  0.00    +0.000 A 
ATOM      7  C   UNL     1      23.080  11.326  38.036  0.00  0.00    +0.000 A 
ATOM      8  C   UNL     1      22.688  10.009  38.221  0.00  0.00    +0.000 A 
ATOM      9  C   UNL     1      21.660   9.708  39.093  0.00  0.00    +0.000 A 
ATOM     10  O   UNL     1      23.376   9.052  37.497  0.00  0.00    +0.000 OA
ATOM     11  C   UNL     1      23.986   9.309  36.253  0.00  0.00    +0.000 C 
ATOM     12  C   UNL     1      24.447  10.717  36.084  0.00  0.00    +0.000 C 
ATOM     13  O   UNL     1      24.107  11.564  37.158  0.00  0.00    +0.000 OA
ENDBRANCH   2   4
BRANCH   3  14
ATOM     14  N   UNL     1      18.615  10.241  38.815  0.00  0.00    +0.000 NA
ATOM     15  C   UNL     1      17.361  10.301  38.159  0.00  0.00    +0.000 C 
ATOM     16  O   UNL     1      16.328  10.206  38.863  0.00  0.00    +0.000 OA
BRANCH  15  17
ATOM     17  C   UNL     1      17.194  10.464  36.725  0.00  0.00    +0.000 A 
ATOM     18  C   UNL     1      17.473   9.445  35.827  0.00  0.00    +0.000 A 
ATOM     19  C   UNL     1      17.311   9.612  34.472  0.00  0.00    +0.000 A 
ATOM     20  C   UNL     1      16.858  10.823  33.982  0.00  0.00    +0.000 A 
ATOM     21  C   UNL     1      16.569  11.858  34.835  0.00  0.00    +0.000 A 
ATOM     22  C   UNL     1      16.745  11.649  36.188  0.00  0.00    +0.000 A 
ATOM     23  O   UNL     1      16.449  12.702  37.041  0.00  0.00    +0.000 OA
ENDBRANCH  15  17
ENDBRANCH   3  14
TORSDOF 3
ENDMDL
