MODEL 1
REMARK VINA RESULT:      -6.0      0.000      0.000
REMARK  Name = 
REMARK  3 active torsions:
REMARK  status: ('A' for Active; 'I' for Inactive)
REMARK    1  A    between atoms: N_2  and  C_4
REMARK    2  A    between atoms: C_13  and  C_14
REMARK    3  A    between atoms: C_16  and  C_17
REMARK                            x       y       z     vdW  Elec       q    Type
REMARK                         _______ _______ _______ _____ _____    ______ ____
ROOT
ATOM      1  C   UNL     1      31.104  22.797  27.324  0.00  0.00    +0.000 A 
ATOM      2  C   UNL     1      29.844  22.455  27.766  0.00  0.00    +0.000 A 
ATOM      3  C   UNL     1      28.766  22.506  26.916  0.00  0.00    +0.000 A 
ATOM      4  C   UNL     1      28.895  22.905  25.573  0.00  0.00    +0.000 A 
ATOM      5  C   UNL     1      30.110  23.236  25.141  0.00  0.00    +0.000 A 
ATOM      6  C   UNL     1      31.238  23.187  26.014  0.00  0.00    +0.000 A 
ATOM      7  O   UNL     1      30.337  23.641  23.833  0.00  0.00    +0.000 OA
ATOM      8  C   UNL     1      29.231  23.682  23.002  0.00  0.00    +0.000 C 
ATOM      9  N   UNL     1      29.434  24.107  21.609  0.00  0.00    +0.000 NA
ATOM     10  C   UNL     1      28.018  23.381  23.327  0.00  0.00    +0.000 C 
ATOM     11  C   UNL     1      27.634  22.919  24.739  0.00  0.00    +0.000 C 
ENDROOT
BRANCH  11  12
ATOM     12  C   UNL     1      26.886  24.162  25.342  0.00  0.00    +0.000 A 
ATOM     13  C   UNL     1      27.305  25.449  25.363  0.00  0.00    +0.000 A 
ATOM     14  C   UNL     1      26.264  26.140  26.012  0.00  0.00    +0.000 A 
ATOM     15  O   UNL     1      25.303  25.311  26.348  0.00  0.00    +0.000 OA
ATOM     16  C   UNL     1      25.668  24.098  25.946  0.00  0.00    +0.000 A 
ENDBRANCH  11  12
BRANCH   1  18
ATOM     17  C   UNL     1      32.412  21.723  29.196  0.00  0.00    +0.000 C 
ATOM     18  N   UNL     1      32.235  22.745  28.204  0.00  0.00    +0.000 N 
ATOM     19  C   UNL     1      33.289  23.759  28.133  0.00  0.00    +0.000 C 
ENDBRANCH   1  18
BRANCH  10  20
ATOM     20  C   UNL     1      26.989  23.485  22.315  0.00  0.00    +0.000 C 
ATOM     21  N   UNL     1      26.150  23.548  21.512  0.00  0.00    +0.000 NA
ENDBRANCH  10  20
TORSDOF 3
ENDMDL
MODEL 2
REMARK VINA RESULT:      -5.6     32.273     33.152
REMARK  Name = 
REMARK  3 active torsions:
REMARK  status: ('A' for Active; 'I' for Inactive)
REMARK    1  A    between atoms: N_2  and  C_4
REMARK    2  A    between atoms: C_13  and  C_14
REMARK    3  A    between atoms: C_16  and  C_17
REMARK                            x       y       z     vdW  Elec       q    Type
REMARK                         _______ _______ _______ _____ _____    ______ ____
ROOT
ATOM      1  C   UNL     1      23.278  -8.264  24.285  0.00  0.00    +0.000 A 
ATOM      2  C   UNL     1      22.600  -9.460  24.182  0.00  0.00    +0.000 A 
ATOM      3  C   UNL     1      21.280  -9.551  24.553  0.00  0.00    +0.000 A 
ATOM      4  C   UNL     1      20.569  -8.444  25.049  0.00  0.00    +0.000 A 
ATOM      5  C   UNL     1      21.219  -7.287  25.151  0.00  0.00    +0.000 A 
ATOM      6  C   UNL     1      22.590  -7.179  24.769  0.00  0.00    +0.000 A 
ATOM      7  O   UNL     1      20.601  -6.140  25.628  0.00  0.00    +0.000 OA
ATOM      8  C   UNL     1      19.272  -6.264  25.994  0.00  0.00    +0.000 C 
ATOM      9  N   UNL     1      18.584  -5.069  26.504  0.00  0.00    +0.000 NA
ATOM     10  C   UNL     1      18.558  -7.339  25.931  0.00  0.00    +0.000 C 
ATOM     11  C   UNL     1      19.122  -8.673  25.422  0.00  0.00    +0.000 C 
ENDROOT
BRANCH  11  12
ATOM     12  C   UNL     1      19.277  -9.529  26.729  0.00  0.00    +0.000 A 
ATOM     13  C   UNL     1      20.011  -9.236  27.828  0.00  0.00    +0.000 A 
ATOM     14  C   UNL     1      19.796 -10.330  28.689  0.00  0.00    +0.000 A 
ATOM     15  O   UNL     1      18.991 -11.202  28.129  0.00  0.00    +0.000 OA
ATOM     16  C   UNL     1      18.665 -10.728  26.931  0.00  0.00    +0.000 A 
ENDBRANCH  11  12
BRANCH   1  18
ATOM     17  C   UNL     1      25.260  -6.931  23.469  0.00  0.00    +0.000 C 
ATOM     18  N   UNL     1      24.656  -8.160  23.900  0.00  0.00    +0.000 N 
ATOM     19  C   UNL     1      25.533  -9.332  23.927  0.00  0.00    +0.000 C 
ENDBRANCH   1  18
BRANCH  10  20
ATOM     20  C   UNL     1      17.178  -7.274  26.359  0.00  0.00    +0.000 C 
ATOM     21  N   UNL     1      16.066  -7.197  26.694  0.00  0.00    +0.000 NA
ENDBRANCH  10  20
TORSDOF 3
ENDMDL
MODEL 3
REMARK VINA RESULT:      -5.6      2.611      5.945
REMARK  Name = 
REMARK  3 active torsions:
REMARK  status: ('A' for Active; 'I' for Inactive)
REMARK    1  A    between atoms: N_2  and  C_4
REMARK    2  A    between atoms: C_13  and  C_14
REMARK    3  A    between atoms: C_16  and  C_17
REMARK                            x       y       z     vdW  Elec       q    Type
REMARK                         _______ _______ _______ _____ _____    ______ ____
ROOT
ATOM      1  C   UNL     1      28.384  24.582  23.276  0.00  0.00    +0.000 A 
ATOM      2  C   UNL     1      29.232  23.513  23.476  0.00  0.00    +0.000 A 
ATOM      3  C   UNL     1      29.222  22.823  24.665  0.00  0.00    +0.000 A 
ATOM      4  C   UNL     1      28.358  23.171  25.719  0.00  0.00    +0.000 A 
ATOM      5  C   UNL     1      27.537  24.203  25.531  0.00  0.00    +0.000 A 
ATOM      6  C   UNL     1      27.538  24.926  24.301  0.00  0.00    +0.000 A 
ATOM      7  O   UNL     1      26.649  24.619  26.513  0.00  0.00    +0.000 OA
ATOM      8  C   UNL     1      26.662  23.905  27.698  0.00  0.00    +0.000 C 
ATOM      9  N   UNL     1      25.735  24.318  28.761  0.00  0.00    +0.000 NA
ATOM     10  C   UNL     1      27.418  22.894  27.973  0.00  0.00    +0.000 C 
ATOM     11  C   UNL     1      28.441  22.334  26.975  0.00  0.00    +0.000 C 
ENDROOT
BRANCH  11  12
ATOM     12  C   UNL     1      29.821  22.805  27.561  0.00  0.00    +0.000 A 
ATOM     13  C   UNL     1      30.943  22.067  27.728  0.00  0.00    +0.000 A 
ATOM     14  C   UNL     1      31.871  22.970  28.283  0.00  0.00    +0.000 A 
ATOM     15  O   UNL     1      31.325  24.155  28.430  0.00  0.00    +0.000 OA
ATOM     16  C   UNL     1      30.072  24.070  27.994  0.00  0.00    +0.000 A 
ENDBRANCH  11  12
BRANCH   1  18
ATOM     17  C   UNL     1      29.352  25.080  21.000  0.00  0.00    +0.000 C 
ATOM     18  N   UNL     1      28.388  25.306  22.038  0.00  0.00    +0.000 N 
ATOM     19  C   UNL     1      27.383  26.337  21.769  0.00  0.00    +0.000 C 
ENDBRANCH   1  18
BRANCH  10  20
ATOM     20  C   UNL     1      27.288  22.272  29.273  0.00  0.00    +0.000 C 
ATOM     21  N   UNL     1      27.199  21.752  30.310  0.00  0.00    +0.000 NA
ENDBRANCH  10  20
TORSDOF 3
ENDMDL
MODEL 4
REMARK VINA RESULT:      -5.4      2.559      5.997
REMARK  Name = 
REMARK  3 active torsions:
REMARK  status: ('A' for Active; 'I' for Inactive)
REMARK    1  A    between atoms: N_2  and  C_4
REMARK    2  A    between atoms: C_13  and  C_14
REMARK    3  A    between atoms: C_16  and  C_17
REMARK                            x       y       z     vdW  Elec       q    Type
REMARK                         _______ _______ _______ _____ _____    ______ ____
ROOT
ATOM      1  C   UNL     1      27.995  23.719  24.819  0.00  0.00    +0.000 A 
ATOM      2  C   UNL     1      27.317  24.529  25.705  0.00  0.00    +0.000 A 
ATOM      3  C   UNL     1      27.693  24.591  27.025  0.00  0.00    +0.000 A 
ATOM      4  C   UNL     1      28.772  23.841  27.528  0.00  0.00    +0.000 A 
ATOM      5  C   UNL     1      29.430  23.058  26.676  0.00  0.00    +0.000 A 
ATOM      6  C   UNL     1      29.049  22.985  25.303  0.00  0.00    +0.000 A 
ATOM      7  O   UNL     1      30.508  22.282  27.079  0.00  0.00    +0.000 OA
ATOM      8  C   UNL     1      30.862  22.367  28.414  0.00  0.00    +0.000 C 
ATOM      9  N   UNL     1      31.999  21.558  28.877  0.00  0.00    +0.000 NA
ATOM     10  C   UNL     1      30.288  23.095  29.313  0.00  0.00    +0.000 C 
ATOM     11  C   UNL     1      29.087  23.998  28.998  0.00  0.00    +0.000 C 
ENDROOT
BRANCH  11  12
ATOM     12  C   UNL     1      27.876  23.239  29.650  0.00  0.00    +0.000 A 
ATOM     13  C   UNL     1      27.548  21.933  29.514  0.00  0.00    +0.000 A 
ATOM     14  C   UNL     1      26.391  21.783  30.302  0.00  0.00    +0.000 A 
ATOM     15  O   UNL     1      26.065  22.926  30.860  0.00  0.00    +0.000 OA
ATOM     16  C   UNL     1      26.963  23.827  30.471  0.00  0.00    +0.000 A 
ENDBRANCH  11  12
BRANCH   1  18
ATOM     17  C   UNL     1      26.257  23.433  23.012  0.00  0.00    +0.000 C 
ATOM     18  N   UNL     1      27.610  23.648  23.439  0.00  0.00    +0.000 N 
ATOM     19  C   UNL     1      28.604  23.796  22.374  0.00  0.00    +0.000 C 
ENDBRANCH   1  18
BRANCH  10  20
ATOM     20  C   UNL     1      30.803  23.052  30.664  0.00  0.00    +0.000 C 
ATOM     21  N   UNL     1      31.198  23.035  31.759  0.00  0.00    +0.000 NA
ENDBRANCH  10  20
TORSDOF 3
ENDMDL
MODEL 5
REMARK VINA RESULT:      -5.4      2.485      4.934
REMARK  Name = 
REMARK  3 active torsions:
REMARK  status: ('A' for Active; 'I' for Inactive)
REMARK    1  A    between atoms: N_2  and  C_4
REMARK    2  A    between atoms: C_13  and  C_14
REMARK    3  A    between atoms: C_16  and  C_17
REMARK                            x       y       z     vdW  Elec       q    Type
REMARK                         _______ _______ _______ _____ _____    ______ ____
ROOT
ATOM      1  C   UNL     1      26.272  25.406  27.582  0.00  0.00    +0.000 A 
ATOM      2  C   UNL     1      27.522  25.986  27.621  0.00  0.00    +0.000 A 
ATOM      3  C   UNL     1      28.335  25.974  26.512  0.00  0.00    +0.000 A 
ATOM      4  C   UNL     1      27.935  25.377  25.303  0.00  0.00    +0.000 A 
ATOM      5  C   UNL     1      26.728  24.815  25.260  0.00  0.00    +0.000 A 
ATOM      6  C   UNL     1      25.876  24.822  26.405  0.00  0.00    +0.000 A 
ATOM      7  O   UNL     1      26.246  24.203  24.112  0.00  0.00    +0.000 OA
ATOM      8  C   UNL     1      27.088  24.208  23.013  0.00  0.00    +0.000 C 
ATOM      9  N   UNL     1      26.611  23.568  21.779  0.00  0.00    +0.000 NA
ATOM     10  C   UNL     1      28.270  24.725  22.957  0.00  0.00    +0.000 C 
ATOM     11  C   UNL     1      28.918  25.431  24.156  0.00  0.00    +0.000 C 
ENDROOT
BRANCH  11  12
ATOM     12  C   UNL     1      30.006  24.407  24.641  0.00  0.00    +0.000 A 
ATOM     13  C   UNL     1      29.823  23.116  25.005  0.00  0.00    +0.000 A 
ATOM     14  C   UNL     1      31.113  22.667  25.346  0.00  0.00    +0.000 A 
ATOM     15  O   UNL     1      31.990  23.632  25.192  0.00  0.00    +0.000 OA
ATOM     16  C   UNL     1      31.329  24.702  24.763  0.00  0.00    +0.000 A 
ENDBRANCH  11  12
BRANCH   1  18
ATOM     17  C   UNL     1      25.709  24.682  29.933  0.00  0.00    +0.000 C 
ATOM     18  N   UNL     1      25.418  25.415  28.734  0.00  0.00    +0.000 N 
ATOM     19  C   UNL     1      24.176  26.190  28.741  0.00  0.00    +0.000 C 
ENDBRANCH   1  18
BRANCH  10  20
ATOM     20  C   UNL     1      29.003  24.632  21.713  0.00  0.00    +0.000 C 
ATOM     21  N   UNL     1      29.575  24.538  20.705  0.00  0.00    +0.000 NA
ENDBRANCH  10  20
TORSDOF 3
ENDMDL
MODEL 6
REMARK VINA RESULT:      -5.4      1.803      2.267
REMARK  Name = 
REMARK  3 active torsions:
REMARK  status: ('A' for Active; 'I' for Inactive)
REMARK    1  A    between atoms: N_2  and  C_4
REMARK    2  A    between atoms: C_13  and  C_14
REMARK    3  A    between atoms: C_16  and  C_17
REMARK                            x       y       z     vdW  Elec       q    Type
REMARK                         _______ _______ _______ _____ _____    ______ ____
ROOT
ATOM      1  C   UNL     1      29.855  22.666  29.758  0.00  0.00    +0.000 A 
ATOM      2  C   UNL     1      28.501  22.434  29.630  0.00  0.00    +0.000 A 
ATOM      3  C   UNL     1      27.898  22.474  28.396  0.00  0.00    +0.000 A 
ATOM      4  C   UNL     1      28.622  22.750  27.222  0.00  0.00    +0.000 A 
ATOM      5  C   UNL     1      29.929  22.974  27.341  0.00  0.00    +0.000 A 
ATOM      6  C   UNL     1      30.567  22.936  28.617  0.00  0.00    +0.000 A 
ATOM      7  O   UNL     1      30.727  23.254  26.240  0.00  0.00    +0.000 OA
ATOM      8  C   UNL     1      30.090  23.287  25.012  0.00  0.00    +0.000 C 
ATOM      9  N   UNL     1      30.903  23.580  23.823  0.00  0.00    +0.000 NA
ATOM     10  C   UNL     1      28.833  23.082  24.796  0.00  0.00    +0.000 C 
ATOM     11  C   UNL     1      27.844  22.764  25.926  0.00  0.00    +0.000 C 
ENDROOT
BRANCH  11  12
ATOM     12  C   UNL     1      27.022  24.093  26.081  0.00  0.00    +0.000 A 
ATOM     13  C   UNL     1      27.500  25.342  26.291  0.00  0.00    +0.000 A 
ATOM     14  C   UNL     1      26.347  26.148  26.349  0.00  0.00    +0.000 A 
ATOM     15  O   UNL     1      25.269  25.418  26.186  0.00  0.00    +0.000 OA
ATOM     16  C   UNL     1      25.664  24.159  26.021  0.00  0.00    +0.000 A 
ENDBRANCH  11  12
BRANCH   1  18
ATOM     17  C   UNL     1      30.134  23.497  32.125  0.00  0.00    +0.000 C 
ATOM     18  N   UNL     1      30.492  22.625  31.042  0.00  0.00    +0.000 N 
ATOM     19  C   UNL     1      31.567  21.670  31.317  0.00  0.00    +0.000 C 
ENDBRANCH   1  18
BRANCH  10  20
ATOM     20  C   UNL     1      28.347  23.158  23.435  0.00  0.00    +0.000 C 
ATOM     21  N   UNL     1      27.962  23.194  22.338  0.00  0.00    +0.000 NA
ENDBRANCH  10  20
TORSDOF 3
ENDMDL
MODEL 7
REMARK VINA RESULT:      -5.4     32.881     33.791
REMARK  Name = 
REMARK  3 active torsions:
REMARK  status: ('A' for Active; 'I' for Inactive)
REMARK    1  A    between atoms: N_2  and  C_4
REMARK    2  A    between atoms: C_13  and  C_14
REMARK    3  A    between atoms: C_16  and  C_17
REMARK                            x       y       z     vdW  Elec       q    Type
REMARK                         _______ _______ _______ _____ _____    ______ ____
ROOT
ATOM      1  C   UNL     1      21.806  -7.328  24.931  0.00  0.00    +0.000 A 
ATOM      2  C   UNL     1      20.793  -6.424  25.176  0.00  0.00    +0.000 A 
ATOM      3  C   UNL     1      19.759  -6.744  26.021  0.00  0.00    +0.000 A 
ATOM      4  C   UNL     1      19.684  -7.991  26.668  0.00  0.00    +0.000 A 
ATOM      5  C   UNL     1      20.659  -8.867  26.435  0.00  0.00    +0.000 A 
ATOM      6  C   UNL     1      21.739  -8.547  25.559  0.00  0.00    +0.000 A 
ATOM      7  O   UNL     1      20.672 -10.122  27.027  0.00  0.00    +0.000 OA
ATOM      8  C   UNL     1      19.616 -10.414  27.873  0.00  0.00    +0.000 C 
ATOM      9  N   UNL     1      19.597 -11.735  28.518  0.00  0.00    +0.000 NA
ATOM     10  C   UNL     1      18.628  -9.633  28.161  0.00  0.00    +0.000 C 
ATOM     11  C   UNL     1      18.496  -8.221  27.574  0.00  0.00    +0.000 C 
ENDROOT
BRANCH  11  12
ATOM     12  C   UNL     1      17.337  -8.367  26.524  0.00  0.00    +0.000 A 
ATOM     13  C   UNL     1      17.257  -9.245  25.497  0.00  0.00    +0.000 A 
ATOM     14  C   UNL     1      16.026  -8.946  24.882  0.00  0.00    +0.000 A 
ATOM     15  O   UNL     1      15.429  -7.959  25.508  0.00  0.00    +0.000 OA
ATOM     16  C   UNL     1      16.217  -7.593  26.514  0.00  0.00    +0.000 A 
ENDBRANCH  11  12
BRANCH   1  18
ATOM     17  C   UNL     1      24.037  -6.246  24.465  0.00  0.00    +0.000 C 
ATOM     18  N   UNL     1      22.890  -7.002  24.051  0.00  0.00    +0.000 N 
ATOM     19  C   UNL     1      22.878  -7.436  22.652  0.00  0.00    +0.000 C 
ENDBRANCH   1  18
BRANCH  10  20
ATOM     20  C   UNL     1      17.614 -10.116  29.072  0.00  0.00    +0.000 C 
ATOM     21  N   UNL     1      16.790 -10.480  29.809  0.00  0.00    +0.000 NA
ENDBRANCH  10  20
TORSDOF 3
ENDMDL
MODEL 8
REMARK VINA RESULT:      -5.3      2.058      6.405
REMARK  Name = 
REMARK  3 active torsions:
REMARK  status: ('A' for Active; 'I' for Inactive)
REMARK    1  A    between atoms: N_2  and  C_4
REMARK    2  A    between atoms: C_13  and  C_14
REMARK    3  A    between atoms: C_16  and  C_17
REMARK                            x       y       z     vdW  Elec       q    Type
REMARK                         _______ _______ _______ _____ _____    ______ ____
ROOT
ATOM      1  C   UNL     1      27.846  23.280  24.123  0.00  0.00    +0.000 A 
ATOM      2  C   UNL     1      29.159  23.139  23.724  0.00  0.00    +0.000 A 
ATOM      3  C   UNL     1      30.154  22.936  24.649  0.00  0.00    +0.000 A 
ATOM      4  C   UNL     1      29.884  22.863  26.028  0.00  0.00    +0.000 A 
ATOM      5  C   UNL     1      28.618  22.998  26.418  0.00  0.00    +0.000 A 
ATOM      6  C   UNL     1      27.576  23.209  25.466  0.00  0.00    +0.000 A 
ATOM      7  O   UNL     1      28.254  22.939  27.756  0.00  0.00    +0.000 OA
ATOM      8  C   UNL     1      29.279  22.733  28.663  0.00  0.00    +0.000 C 
ATOM      9  N   UNL     1      28.931  22.666  30.090  0.00  0.00    +0.000 NA
ATOM     10  C   UNL     1      30.532  22.590  28.384  0.00  0.00    +0.000 C 
ATOM     11  C   UNL     1      31.064  22.634  26.944  0.00  0.00    +0.000 C 
ENDROOT
BRANCH  11  12
ATOM     12  C   UNL     1      31.786  24.028  26.862  0.00  0.00    +0.000 A 
ATOM     13  C   UNL     1      31.262  25.247  27.127  0.00  0.00    +0.000 A 
ATOM     14  C   UNL     1      32.329  26.138  26.899  0.00  0.00    +0.000 A 
ATOM     15  O   UNL     1      33.402  25.481  26.525  0.00  0.00    +0.000 OA
ATOM     16  C   UNL     1      33.087  24.190  26.497  0.00  0.00    +0.000 A 
ENDBRANCH  11  12
BRANCH   1  18
ATOM     17  C   UNL     1      27.031  24.064  21.866  0.00  0.00    +0.000 C 
ATOM     18  N   UNL     1      26.802  23.492  23.163  0.00  0.00    +0.000 N 
ATOM     19  C   UNL     1      25.417  23.126  23.467  0.00  0.00    +0.000 C 
ENDBRANCH   1  18
BRANCH  10  20
ATOM     20  C   UNL     1      31.460  22.382  29.473  0.00  0.00    +0.000 C 
ATOM     21  N   UNL     1      32.222  22.200  30.333  0.00  0.00    +0.000 NA
ENDBRANCH  10  20
TORSDOF 3
ENDMDL
MODEL 9
REMARK VINA RESULT:      -5.3      1.832      2.315
REMARK  Name = 
REMARK  3 active torsions:
REMARK  status: ('A' for Active; 'I' for Inactive)
REMARK    1  A    between atoms: N_2  and  C_4
REMARK    2  A    between atoms: C_13  and  C_14
REMARK    3  A    between atoms: C_16  and  C_17
REMARK                            x       y       z     vdW  Elec       q    Type
REMARK                         _______ _______ _______ _____ _____    ______ ____
ROOT
ATOM      1  C   UNL     1      32.326  24.622  25.496  0.00  0.00    +0.000 A 
ATOM      2  C   UNL     1      31.739  23.593  26.201  0.00  0.00    +0.000 A 
ATOM      3  C   UNL     1      30.513  23.098  25.827  0.00  0.00    +0.000 A 
ATOM      4  C   UNL     1      29.808  23.612  24.724  0.00  0.00    +0.000 A 
ATOM      5  C   UNL     1      30.371  24.606  24.040  0.00  0.00    +0.000 A 
ATOM      6  C   UNL     1      31.644  25.128  24.418  0.00  0.00    +0.000 A 
ATOM      7  O   UNL     1      29.753  25.177  22.936  0.00  0.00    +0.000 OA
ATOM      8  C   UNL     1      28.519  24.657  22.585  0.00  0.00    +0.000 C 
ATOM      9  N   UNL     1      27.834  25.238  21.421  0.00  0.00    +0.000 NA
ATOM     10  C   UNL     1      27.894  23.697  23.183  0.00  0.00    +0.000 C 
ATOM     11  C   UNL     1      28.469  22.982  24.414  0.00  0.00    +0.000 C 
ENDROOT
BRANCH  11  12
ATOM     12  C   UNL     1      27.595  23.531  25.599  0.00  0.00    +0.000 A 
ATOM     13  C   UNL     1      27.367  24.823  25.929  0.00  0.00    +0.000 A 
ATOM     14  C   UNL     1      26.526  24.748  27.056  0.00  0.00    +0.000 A 
ATOM     15  O   UNL     1      26.282  23.495  27.363  0.00  0.00    +0.000 OA
ATOM     16  C   UNL     1      26.928  22.739  26.482  0.00  0.00    +0.000 A 
ENDBRANCH  11  12
BRANCH   1  18
ATOM     17  C   UNL     1      34.392  25.995  25.032  0.00  0.00    +0.000 C 
ATOM     18  N   UNL     1      33.607  25.143  25.879  0.00  0.00    +0.000 N 
ATOM     19  C   UNL     1      34.188  24.823  27.184  0.00  0.00    +0.000 C 
ENDBRANCH   1  18
BRANCH  10  20
ATOM     20  C   UNL     1      26.606  23.288  22.667  0.00  0.00    +0.000 C 
ATOM     21  N   UNL     1      25.562  22.956  22.278  0.00  0.00    +0.000 NA
ENDBRANCH  10  20
TORSDOF 3
ENDMDL
MODEL 10
REMARK VINA RESULT:      -5.2     22.425     23.611
REMARK  Name = 
REMARK  3 active torsions:
REMARK  status: ('A' for Active; 'I' for Inactive)
REMARK    1  A    between atoms: N_2  and  C_4
REMARK    2  A    between atoms: C_13  and  C_14
REMARK    3  A    between atoms: C_16  and  C_17
REMARK                            x       y       z     vdW  Elec       q    Type
REMARK                         _______ _______ _______ _____ _____    ______ ____
ROOT
ATOM      1  C   UNL     1      26.122   4.513  18.004  0.00  0.00    +0.000 A 
ATOM      2  C   UNL     1      25.134   4.119  18.882  0.00  0.00    +0.000 A 
ATOM      3  C   UNL     1      24.458   2.939  18.692  0.00  0.00    +0.000 A 
ATOM      4  C   UNL     1      24.737   2.088  17.607  0.00  0.00    +0.000 A 
ATOM      5  C   UNL     1      25.691   2.463  16.756  0.00  0.00    +0.000 A 
ATOM      6  C   UNL     1      26.400   3.687  16.944  0.00  0.00    +0.000 A 
ATOM      7  O   UNL     1      26.037   1.690  15.658  0.00  0.00    +0.000 OA
ATOM      8  C   UNL     1      25.338   0.507  15.493  0.00  0.00    +0.000 C 
ATOM      9  N   UNL     1      25.678  -0.338  14.340  0.00  0.00    +0.000 NA
ATOM     10  C   UNL     1      24.401   0.058  16.261  0.00  0.00    +0.000 C 
ATOM     11  C   UNL     1      23.925   0.817  17.508  0.00  0.00    +0.000 C 
ENDROOT
BRANCH  11  12
ATOM     12  C   UNL     1      22.524   1.385  17.080  0.00  0.00    +0.000 A 
ATOM     13  C   UNL     1      22.249   2.212  16.045  0.00  0.00    +0.000 A 
ATOM     14  C   UNL     1      20.855   2.402  16.116  0.00  0.00    +0.000 A 
ATOM     15  O   UNL     1      20.352   1.730  17.125  0.00  0.00    +0.000 OA
ATOM     16  C   UNL     1      21.360   1.104  17.725  0.00  0.00    +0.000 A 
ENDBRANCH  11  12
BRANCH   1  18
ATOM     17  C   UNL     1      27.772   5.949  19.263  0.00  0.00    +0.000 C 
ATOM     18  N   UNL     1      26.834   5.744  18.197  0.00  0.00    +0.000 N 
ATOM     19  C   UNL     1      26.630   6.877  17.292  0.00  0.00    +0.000 C 
ENDBRANCH   1  18
BRANCH  10  20
ATOM     20  C   UNL     1      23.784  -1.206  15.926  0.00  0.00    +0.000 C 
ATOM     21  N   UNL     1      23.278  -2.224  15.682  0.00  0.00    +0.000 NA
ENDBRANCH  10  20
TORSDOF 3
ENDMDL
