MODEL 1
REMARK VINA RESULT:      -7.4      0.000      0.000
REMARK  Name = 
REMARK  3 active torsions:
REMARK  status: ('A' for Active; 'I' for Inactive)
REMARK    1  A    between atoms: C_6  and  C_7
REMARK    2  A    between atoms: C_11  and  N_12
REMARK    3  A    between atoms: C_13  and  C_15
REMARK                            x       y       z     vdW  Elec       q    Type
REMARK                         _______ _______ _______ _____ _____    ______ ____
ROOT
ATOM      1  C   UNL     1      13.046  12.152  36.811  0.00  0.00    +0.000 C 
ATOM      2  C   UNL     1      14.410  11.659  37.133  0.00  0.00    +0.000 A 
ATOM      3  C   UNL     1      14.673  11.034  38.357  0.00  0.00    +0.000 A 
ATOM      4  C   UNL     1      15.943  10.586  38.634  0.00  0.00    +0.000 A 
ATOM      5  O   UNL     1      16.274   9.958  39.828  0.00  0.00    +0.000 OA
ATOM      6  C   UNL     1      16.950  10.753  37.706  0.00  0.00    +0.000 A 
ATOM      7  C   UNL     1      16.677  11.376  36.490  0.00  0.00    +0.000 A 
ATOM      8  C   UNL     1      15.402  11.836  36.191  0.00  0.00    +0.000 A 
ENDROOT
BRANCH   6   9
ATOM      9  C   UNL     1      18.309  10.274  37.998  0.00  0.00    +0.000 C 
ATOM     10  C   UNL     1      19.193  11.425  38.426  0.00  0.00    +0.000 C 
ATOM     11  C   UNL     1      18.966   9.599  36.821  0.00  0.00    +0.000 C 
ENDBRANCH   6   9
BRANCH   8  12
ATOM     12  N   UNL     1      15.084  12.477  34.963  0.00  0.00    +0.000 NA
ATOM     13  C   UNL     1      15.156  11.852  33.707  0.00  0.00    +0.000 C 
ATOM     14  O   UNL     1      15.523  10.650  33.648  0.00  0.00    +0.000 OA
BRANCH  13  15
ATOM     15  C   UNL     1      14.826  12.520  32.452  0.00  0.00    +0.000 A 
ATOM     16  C   UNL     1      15.295  12.260  31.196  0.00  0.00    +0.000 A 
ATOM     17  C   UNL     1      14.694  13.152  30.345  0.00  0.00    +0.000 A 
ATOM     18  C   UNL     1      13.876  13.923  31.140  0.00  0.00    +0.000 A 
ATOM     19  O   UNL     1      13.990  13.514  32.358  0.00  0.00    +0.000 OA
ENDBRANCH  13  15
ENDBRANCH   8  12
TORSDOF 3
ENDMDL
MODEL 2
REMARK VINA RESULT:      -6.2      1.783      2.501
REMARK  Name = 
REMARK  3 active torsions:
REMARK  status: ('A' for Active; 'I' for Inactive)
REMARK    1  A    between atoms: C_6  and  C_7
REMARK    2  A    between atoms: C_11  and  N_12
REMARK    3  A    between atoms: C_13  and  C_15
REMARK                            x       y       z     vdW  Elec       q    Type
REMARK                         _______ _______ _______ _____ _____    ______ ____
ROOT
ATOM      1  C   UNL     1      15.421  10.846  37.841  0.00  0.00    +0.000 C 
ATOM      2  C   UNL     1      16.893  10.650  37.896  0.00  0.00    +0.000 A 
ATOM      3  C   UNL     1      17.505  10.156  39.053  0.00  0.00    +0.000 A 
ATOM      4  C   UNL     1      18.869   9.982  39.081  0.00  0.00    +0.000 A 
ATOM      5  O   UNL     1      19.541   9.496  40.196  0.00  0.00    +0.000 OA
ATOM      6  C   UNL     1      19.625  10.296  37.971  0.00  0.00    +0.000 A 
ATOM      7  C   UNL     1      19.006  10.787  36.824  0.00  0.00    +0.000 A 
ATOM      8  C   UNL     1      17.631  10.969  36.775  0.00  0.00    +0.000 A 
ENDROOT
BRANCH   6   9
ATOM      9  C   UNL     1      21.084  10.111  37.998  0.00  0.00    +0.000 C 
ATOM     10  C   UNL     1      21.770  11.389  38.426  0.00  0.00    +0.000 C 
ATOM     11  C   UNL     1      21.655   9.704  36.663  0.00  0.00    +0.000 C 
ENDBRANCH   6   9
BRANCH   8  12
ATOM     12  N   UNL     1      16.963  11.468  35.625  0.00  0.00    +0.000 NA
ATOM     13  C   UNL     1      16.728  10.717  34.462  0.00  0.00    +0.000 C 
ATOM     14  O   UNL     1      17.129   9.524  34.420  0.00  0.00    +0.000 OA
BRANCH  13  15
ATOM     15  C   UNL     1      16.039  11.240  33.287  0.00  0.00    +0.000 A 
ATOM     16  C   UNL     1      16.178  10.870  31.980  0.00  0.00    +0.000 A 
ATOM     17  C   UNL     1      15.319  11.647  31.244  0.00  0.00    +0.000 A 
ATOM     18  C   UNL     1      14.693  12.465  32.156  0.00  0.00    +0.000 A 
ATOM     19  O   UNL     1      15.147  12.188  33.331  0.00  0.00    +0.000 OA
ENDBRANCH  13  15
ENDBRANCH   8  12
TORSDOF 3
ENDMDL
MODEL 3
REMARK VINA RESULT:      -5.9      4.112      6.776
REMARK  Name = 
REMARK  3 active torsions:
REMARK  status: ('A' for Active; 'I' for Inactive)
REMARK    1  A    between atoms: C_6  and  C_7
REMARK    2  A    between atoms: C_11  and  N_12
REMARK    3  A    between atoms: C_13  and  C_15
REMARK                            x       y       z     vdW  Elec       q    Type
REMARK                         _______ _______ _______ _____ _____    ______ ____
ROOT
ATOM      1  C   UNL     1      17.576  10.800  36.016  0.00  0.00    +0.000 C 
ATOM      2  C   UNL     1      17.082  10.437  37.370  0.00  0.00    +0.000 A 
ATOM      3  C   UNL     1      15.784  10.772  37.771  0.00  0.00    +0.000 A 
ATOM      4  C   UNL     1      15.349  10.425  39.028  0.00  0.00    +0.000 A 
ATOM      5  O   UNL     1      14.074  10.727  39.490  0.00  0.00    +0.000 OA
ATOM      6  C   UNL     1      16.192   9.752  39.887  0.00  0.00    +0.000 A 
ATOM      7  C   UNL     1      17.483   9.423  39.478  0.00  0.00    +0.000 A 
ATOM      8  C   UNL     1      17.942   9.763  38.213  0.00  0.00    +0.000 A 
ENDROOT
BRANCH   6   9
ATOM      9  C   UNL     1      15.729   9.380  41.232  0.00  0.00    +0.000 C 
ATOM     10  C   UNL     1      16.756   9.774  42.271  0.00  0.00    +0.000 C 
ATOM     11  C   UNL     1      15.465   7.902  41.381  0.00  0.00    +0.000 C 
ENDBRANCH   6   9
BRANCH   8  12
ATOM     12  N   UNL     1      19.250   9.446  37.759  0.00  0.00    +0.000 NA
ATOM     13  C   UNL     1      20.405  10.156  38.127  0.00  0.00    +0.000 C 
ATOM     14  O   UNL     1      20.291  11.137  38.907  0.00  0.00    +0.000 OA
BRANCH  13  15
ATOM     15  C   UNL     1      21.745   9.821  37.654  0.00  0.00    +0.000 A 
ATOM     16  C   UNL     1      22.215   9.789  36.373  0.00  0.00    +0.000 A 
ATOM     17  C   UNL     1      23.535   9.418  36.434  0.00  0.00    +0.000 A 
ATOM     18  C   UNL     1      23.804   9.240  37.772  0.00  0.00    +0.000 A 
ATOM     19  O   UNL     1      22.728   9.487  38.440  0.00  0.00    +0.000 OA
ENDBRANCH  13  15
ENDBRANCH   8  12
TORSDOF 3
ENDMDL
MODEL 4
REMARK VINA RESULT:      -5.9     17.058     18.728
REMARK  Name = 
REMARK  3 active torsions:
REMARK  status: ('A' for Active; 'I' for Inactive)
REMARK    1  A    between atoms: C_6  and  C_7
REMARK    2  A    between atoms: C_11  and  N_12
REMARK    3  A    between atoms: C_13  and  C_15
REMARK                            x       y       z     vdW  Elec       q    Type
REMARK                         _______ _______ _______ _____ _____    ______ ____
ROOT
ATOM      1  C   UNL     1      24.299  26.471  26.997  0.00  0.00    +0.000 C 
ATOM      2  C   UNL     1      24.963  25.528  27.934  0.00  0.00    +0.000 A 
ATOM      3  C   UNL     1      24.888  25.723  29.317  0.00  0.00    +0.000 A 
ATOM      4  C   UNL     1      25.510  24.838  30.165  0.00  0.00    +0.000 A 
ATOM      5  O   UNL     1      25.476  24.973  31.548  0.00  0.00    +0.000 OA
ATOM      6  C   UNL     1      26.204  23.763  29.650  0.00  0.00    +0.000 A 
ATOM      7  C   UNL     1      26.272  23.577  28.271  0.00  0.00    +0.000 A 
ATOM      8  C   UNL     1      25.652  24.459  27.397  0.00  0.00    +0.000 A 
ENDROOT
BRANCH   6   9
ATOM      9  C   UNL     1      26.870  22.814  30.554  0.00  0.00    +0.000 C 
ATOM     10  C   UNL     1      28.323  22.649  30.168  0.00  0.00    +0.000 C 
ATOM     11  C   UNL     1      26.233  21.447  30.554  0.00  0.00    +0.000 C 
ENDBRANCH   6   9
BRANCH   8  12
ATOM     12  N   UNL     1      25.698  24.304  25.986  0.00  0.00    +0.000 NA
ATOM     13  C   UNL     1      26.810  24.634  25.193  0.00  0.00    +0.000 C 
ATOM     14  O   UNL     1      27.838  25.098  25.753  0.00  0.00    +0.000 OA
BRANCH  13  15
ATOM     15  C   UNL     1      26.847  24.471  23.744  0.00  0.00    +0.000 A 
ATOM     16  C   UNL     1      26.255  23.507  22.978  0.00  0.00    +0.000 A 
ATOM     17  C   UNL     1      26.576  23.774  21.671  0.00  0.00    +0.000 A 
ATOM     18  C   UNL     1      27.361  24.904  21.709  0.00  0.00    +0.000 A 
ATOM     19  O   UNL     1      27.487  25.270  22.940  0.00  0.00    +0.000 OA
ENDBRANCH  13  15
ENDBRANCH   8  12
TORSDOF 3
ENDMDL
MODEL 5
REMARK VINA RESULT:      -5.9      3.000      4.662
REMARK  Name = 
REMARK  3 active torsions:
REMARK  status: ('A' for Active; 'I' for Inactive)
REMARK    1  A    between atoms: C_6  and  C_7
REMARK    2  A    between atoms: C_11  and  N_12
REMARK    3  A    between atoms: C_13  and  C_15
REMARK                            x       y       z     vdW  Elec       q    Type
REMARK                         _______ _______ _______ _____ _____    ______ ____
ROOT
ATOM      1  C   UNL     1      17.584   9.619  39.270  0.00  0.00    +0.000 C 
ATOM      2  C   UNL     1      19.018   9.661  38.885  0.00  0.00    +0.000 A 
ATOM      3  C   UNL     1      19.999   9.114  39.720  0.00  0.00    +0.000 A 
ATOM      4  C   UNL     1      21.320   9.163  39.343  0.00  0.00    +0.000 A 
ATOM      5  O   UNL     1      22.344   8.641  40.124  0.00  0.00    +0.000 OA
ATOM      6  C   UNL     1      21.673   9.751  38.145  0.00  0.00    +0.000 A 
ATOM      7  C   UNL     1      20.688  10.292  37.321  0.00  0.00    +0.000 A 
ATOM      8  C   UNL     1      19.350  10.252  37.683  0.00  0.00    +0.000 A 
ENDROOT
BRANCH   6   9
ATOM      9  C   UNL     1      23.085   9.805  37.739  0.00  0.00    +0.000 C 
ATOM     10  C   UNL     1      23.521  11.239  37.536  0.00  0.00    +0.000 C 
ATOM     11  C   UNL     1      23.364   9.052  36.463  0.00  0.00    +0.000 C 
ENDBRANCH   6   9
BRANCH   8  12
ATOM     12  N   UNL     1      18.317  10.793  36.870  0.00  0.00    +0.000 NA
ATOM     13  C   UNL     1      17.770  10.141  35.753  0.00  0.00    +0.000 C 
ATOM     14  O   UNL     1      18.211   9.004  35.439  0.00  0.00    +0.000 OA
BRANCH  13  15
ATOM     15  C   UNL     1      16.709  10.706  34.926  0.00  0.00    +0.000 A 
ATOM     16  C   UNL     1      15.928  11.800  35.168  0.00  0.00    +0.000 A 
ATOM     17  C   UNL     1      15.076  11.934  34.102  0.00  0.00    +0.000 A 
ATOM     18  C   UNL     1      15.387  10.898  33.251  0.00  0.00    +0.000 A 
ATOM     19  O   UNL     1      16.344  10.213  33.778  0.00  0.00    +0.000 OA
ENDBRANCH  13  15
ENDBRANCH   8  12
TORSDOF 3
ENDMDL
MODEL 6
REMARK VINA RESULT:      -5.8      2.759      4.536
REMARK  Name = 
REMARK  3 active torsions:
REMARK  status: ('A' for Active; 'I' for Inactive)
REMARK    1  A    between atoms: C_6  and  C_7
REMARK    2  A    between atoms: C_11  and  N_12
REMARK    3  A    between atoms: C_13  and  C_15
REMARK                            x       y       z     vdW  Elec       q    Type
REMARK                         _______ _______ _______ _____ _____    ______ ____
ROOT
ATOM      1  C   UNL     1      20.094  11.635  38.055  0.00  0.00    +0.000 C 
ATOM      2  C   UNL     1      19.413  10.636  38.920  0.00  0.00    +0.000 A 
ATOM      3  C   UNL     1      19.751  10.512  40.271  0.00  0.00    +0.000 A 
ATOM      4  C   UNL     1      19.108   9.581  41.052  0.00  0.00    +0.000 A 
ATOM      5  O   UNL     1      19.394   9.405  42.400  0.00  0.00    +0.000 OA
ATOM      6  C   UNL     1      18.134   8.775  40.500  0.00  0.00    +0.000 A 
ATOM      7  C   UNL     1      17.805   8.907  39.153  0.00  0.00    +0.000 A 
ATOM      8  C   UNL     1      18.442   9.840  38.348  0.00  0.00    +0.000 A 
ENDROOT
BRANCH   6   9
ATOM      9  C   UNL     1      17.444   7.778  41.332  0.00  0.00    +0.000 C 
ATOM     10  C   UNL     1      17.729   6.381  40.829  0.00  0.00    +0.000 C 
ATOM     11  C   UNL     1      15.947   7.963  41.360  0.00  0.00    +0.000 C 
ENDBRANCH   6   9
BRANCH   8  12
ATOM     12  N   UNL     1      18.135  10.004  36.970  0.00  0.00    +0.000 NA
ATOM     13  C   UNL     1      16.961  10.608  36.491  0.00  0.00    +0.000 C 
ATOM     14  O   UNL     1      16.117  11.036  37.321  0.00  0.00    +0.000 OA
BRANCH  13  15
ATOM     15  C   UNL     1      16.657  10.772  35.073  0.00  0.00    +0.000 A 
ATOM     16  C   UNL     1      17.347  10.304  33.992  0.00  0.00    +0.000 A 
ATOM     17  C   UNL     1      16.671  10.713  32.870  0.00  0.00    +0.000 A 
ATOM     18  C   UNL     1      15.587  11.422  33.334  0.00  0.00    +0.000 A 
ATOM     19  O   UNL     1      15.625  11.426  34.624  0.00  0.00    +0.000 OA
ENDBRANCH  13  15
ENDBRANCH   8  12
TORSDOF 3
ENDMDL
MODEL 7
REMARK VINA RESULT:      -5.7     21.419     23.142
REMARK  Name = 
REMARK  3 active torsions:
REMARK  status: ('A' for Active; 'I' for Inactive)
REMARK    1  A    between atoms: C_6  and  C_7
REMARK    2  A    between atoms: C_11  and  N_12
REMARK    3  A    between atoms: C_13  and  C_15
REMARK                            x       y       z     vdW  Elec       q    Type
REMARK                         _______ _______ _______ _____ _____    ______ ____
ROOT
ATOM      1  C   UNL     1      22.152 -10.818  27.574  0.00  0.00    +0.000 C 
ATOM      2  C   UNL     1      21.001  -9.883  27.475  0.00  0.00    +0.000 A 
ATOM      3  C   UNL     1      19.931  -9.969  28.372  0.00  0.00    +0.000 A 
ATOM      4  C   UNL     1      18.877  -9.093  28.262  0.00  0.00    +0.000 A 
ATOM      5  O   UNL     1      17.783  -9.124  29.118  0.00  0.00    +0.000 OA
ATOM      6  C   UNL     1      18.878  -8.136  27.269  0.00  0.00    +0.000 A 
ATOM      7  C   UNL     1      19.949  -8.058  26.381  0.00  0.00    +0.000 A 
ATOM      8  C   UNL     1      21.022  -8.932  26.475  0.00  0.00    +0.000 A 
ENDROOT
BRANCH   6   9
ATOM      9  C   UNL     1      17.753  -7.197  27.149  0.00  0.00    +0.000 C 
ATOM     10  C   UNL     1      16.817  -7.635  26.043  0.00  0.00    +0.000 C 
ATOM     11  C   UNL     1      18.187  -5.784  26.854  0.00  0.00    +0.000 C 
ENDBRANCH   6   9
BRANCH   8  12
ATOM     12  N   UNL     1      22.132  -8.885  25.588  0.00  0.00    +0.000 NA
ATOM     13  C   UNL     1      22.680  -7.698  25.074  0.00  0.00    +0.000 C 
ATOM     14  O   UNL     1      22.168  -6.599  25.410  0.00  0.00    +0.000 OA
BRANCH  13  15
ATOM     15  C   UNL     1      23.821  -7.663  24.165  0.00  0.00    +0.000 A 
ATOM     16  C   UNL     1      24.738  -6.668  23.983  0.00  0.00    +0.000 A 
ATOM     17  C   UNL     1      25.618  -7.097  23.022  0.00  0.00    +0.000 A 
ATOM     18  C   UNL     1      25.183  -8.352  22.661  0.00  0.00    +0.000 A 
ATOM     19  O   UNL     1      24.134  -8.634  23.356  0.00  0.00    +0.000 OA
ENDBRANCH  13  15
ENDBRANCH   8  12
TORSDOF 3
ENDMDL
MODEL 8
REMARK VINA RESULT:      -5.7     17.914     19.495
REMARK  Name = 
REMARK  3 active torsions:
REMARK  status: ('A' for Active; 'I' for Inactive)
REMARK    1  A    between atoms: C_6  and  C_7
REMARK    2  A    between atoms: C_11  and  N_12
REMARK    3  A    between atoms: C_13  and  C_15
REMARK                            x       y       z     vdW  Elec       q    Type
REMARK                         _______ _______ _______ _____ _____    ______ ____
ROOT
ATOM      1  C   UNL     1      31.001  22.772  26.282  0.00  0.00    +0.000 C 
ATOM      2  C   UNL     1      30.011  22.773  27.391  0.00  0.00    +0.000 A 
ATOM      3  C   UNL     1      30.428  22.661  28.721  0.00  0.00    +0.000 A 
ATOM      4  C   UNL     1      29.494  22.664  29.730  0.00  0.00    +0.000 A 
ATOM      5  O   UNL     1      29.838  22.556  31.072  0.00  0.00    +0.000 OA
ATOM      6  C   UNL     1      28.153  22.776  29.427  0.00  0.00    +0.000 A 
ATOM      7  C   UNL     1      27.749  22.887  28.098  0.00  0.00    +0.000 A 
ATOM      8  C   UNL     1      28.675  22.887  27.065  0.00  0.00    +0.000 A 
ENDROOT
BRANCH   6   9
ATOM      9  C   UNL     1      27.152  22.780  30.504  0.00  0.00    +0.000 C 
ATOM     10  C   UNL     1      26.305  21.529  30.441  0.00  0.00    +0.000 C 
ATOM     11  C   UNL     1      26.225  23.969  30.448  0.00  0.00    +0.000 C 
ENDBRANCH   6   9
BRANCH   8  12
ATOM     12  N   UNL     1      28.302  22.997  25.698  0.00  0.00    +0.000 NA
ATOM     13  C   UNL     1      28.005  24.212  25.058  0.00  0.00    +0.000 C 
ATOM     14  O   UNL     1      28.068  25.279  25.723  0.00  0.00    +0.000 OA
BRANCH  13  15
ATOM     15  C   UNL     1      27.624  24.313  23.653  0.00  0.00    +0.000 A 
ATOM     16  C   UNL     1      27.865  25.329  22.774  0.00  0.00    +0.000 A 
ATOM     17  C   UNL     1      27.312  24.965  21.572  0.00  0.00    +0.000 A 
ATOM     18  C   UNL     1      26.754  23.726  21.785  0.00  0.00    +0.000 A 
ATOM     19  O   UNL     1      26.964  23.391  23.014  0.00  0.00    +0.000 OA
ENDBRANCH  13  15
ENDBRANCH   8  12
TORSDOF 3
ENDMDL
MODEL 9
REMARK VINA RESULT:      -5.5     20.808     22.976
REMARK  Name = 
REMARK  3 active torsions:
REMARK  status: ('A' for Active; 'I' for Inactive)
REMARK    1  A    between atoms: C_6  and  C_7
REMARK    2  A    between atoms: C_11  and  N_12
REMARK    3  A    between atoms: C_13  and  C_15
REMARK                            x       y       z     vdW  Elec       q    Type
REMARK                         _______ _______ _______ _____ _____    ______ ____
ROOT
ATOM      1  C   UNL     1      31.158  22.307  27.232  0.00  0.00    +0.000 C 
ATOM      2  C   UNL     1      30.153  22.669  26.199  0.00  0.00    +0.000 A 
ATOM      3  C   UNL     1      28.790  22.444  26.417  0.00  0.00    +0.000 A 
ATOM      4  C   UNL     1      27.878  22.787  25.447  0.00  0.00    +0.000 A 
ATOM      5  O   UNL     1      26.511  22.590  25.598  0.00  0.00    +0.000 OA
ATOM      6  C   UNL     1      28.311  23.351  24.265  0.00  0.00    +0.000 A 
ATOM      7  C   UNL     1      29.671  23.572  24.057  0.00  0.00    +0.000 A 
ATOM      8  C   UNL     1      30.607  23.233  25.023  0.00  0.00    +0.000 A 
ENDROOT
BRANCH   6   9
ATOM      9  C   UNL     1      27.338  23.720  23.225  0.00  0.00    +0.000 C 
ATOM     10  C   UNL     1      27.988  23.688  21.860  0.00  0.00    +0.000 C 
ATOM     11  C   UNL     1      26.749  25.094  23.424  0.00  0.00    +0.000 C 
ENDBRANCH   6   9
BRANCH   8  12
ATOM     12  N   UNL     1      32.002  23.442  24.850  0.00  0.00    +0.000 NA
ATOM     13  C   UNL     1      32.626  24.698  24.922  0.00  0.00    +0.000 C 
ATOM     14  O   UNL     1      31.919  25.713  25.155  0.00  0.00    +0.000 OA
BRANCH  13  15
ATOM     15  C   UNL     1      34.059  24.900  24.743  0.00  0.00    +0.000 A 
ATOM     16  C   UNL     1      34.801  26.021  24.983  0.00  0.00    +0.000 A 
ATOM     17  C   UNL     1      36.101  25.724  24.663  0.00  0.00    +0.000 A 
ATOM     18  C   UNL     1      36.084  24.416  24.235  0.00  0.00    +0.000 A 
ATOM     19  O   UNL     1      34.871  23.983  24.301  0.00  0.00    +0.000 OA
ENDBRANCH  13  15
ENDBRANCH   8  12
TORSDOF 3
ENDMDL
MODEL 10
REMARK VINA RESULT:      -5.4     18.137     19.746
REMARK  Name = 
REMARK  3 active torsions:
REMARK  status: ('A' for Active; 'I' for Inactive)
REMARK    1  A    between atoms: C_6  and  C_7
REMARK    2  A    between atoms: C_11  and  N_12
REMARK    3  A    between atoms: C_13  and  C_15
REMARK                            x       y       z     vdW  Elec       q    Type
REMARK                         _______ _______ _______ _____ _____    ______ ____
ROOT
ATOM      1  C   UNL     1      15.111  22.348  21.270  0.00  0.00    +0.000 C 
ATOM      2  C   UNL     1      14.487  23.695  21.331  0.00  0.00    +0.000 A 
ATOM      3  C   UNL     1      15.194  24.788  21.844  0.00  0.00    +0.000 A 
ATOM      4  C   UNL     1      14.596  26.025  21.890  0.00  0.00    +0.000 A 
ATOM      5  O   UNL     1      15.240  27.152  22.388  0.00  0.00    +0.000 OA
ATOM      6  C   UNL     1      13.305  26.183  21.433  0.00  0.00    +0.000 A 
ATOM      7  C   UNL     1      12.609  25.089  20.923  0.00  0.00    +0.000 A 
ATOM      8  C   UNL     1      13.194  23.832  20.867  0.00  0.00    +0.000 A 
ENDROOT
BRANCH   6   9
ATOM      9  C   UNL     1      12.663  27.505  21.481  0.00  0.00    +0.000 C 
ATOM     10  C   UNL     1      11.435  27.464  22.364  0.00  0.00    +0.000 C 
ATOM     11  C   UNL     1      12.240  28.009  20.124  0.00  0.00    +0.000 C 
ENDBRANCH   6   9
BRANCH   8  12
ATOM     12  N   UNL     1      12.518  22.691  20.356  0.00  0.00    +0.000 NA
ATOM     13  C   UNL     1      11.448  22.053  21.003  0.00  0.00    +0.000 C 
ATOM     14  O   UNL     1      11.050  22.508  22.108  0.00  0.00    +0.000 OA
BRANCH  13  15
ATOM     15  C   UNL     1      10.761  20.882  20.468  0.00  0.00    +0.000 A 
ATOM     16  C   UNL     1      11.288  19.680  20.093  0.00  0.00    +0.000 A 
ATOM     17  C   UNL     1      10.249  18.900  19.653  0.00  0.00    +0.000 A 
ATOM     18  C   UNL     1       9.124  19.681  19.785  0.00  0.00    +0.000 A 
ATOM     19  O   UNL     1       9.477  20.826  20.264  0.00  0.00    +0.000 OA
ENDBRANCH  13  15
ENDBRANCH   8  12
TORSDOF 3
ENDMDL
