MODEL 1
REMARK VINA RESULT:      -7.2      0.000      0.000
REMARK  Name = 
REMARK  8 active torsions:
REMARK  status: ('A' for Active; 'I' for Inactive)
REMARK    1  A    between atoms: O_2  and  C_3
REMARK    2  A    between atoms: C_6  and  O_7
REMARK    3  A    between atoms: C_9  and  N_10
REMARK    4  A    between atoms: C_11  and  C_13
REMARK    5  A    between atoms: C_21  and  C_22
REMARK    6  A    between atoms: C_22  and  S_23
REMARK    7  A    between atoms: S_23  and  C_24
REMARK    8  A    between atoms: C_24  and  C_25
REMARK                            x       y       z     vdW  Elec       q    Type
REMARK                         _______ _______ _______ _____ _____    ______ ____
ROOT
ATOM      1  C   UNL     1      38.749  -1.855  16.199  0.00  0.00    +0.000 A 
ATOM      2  O   UNL     1      38.563  -1.604  17.469  0.00  0.00    +0.000 OA
ATOM      3  C   UNL     1      37.338  -1.202  17.711  0.00  0.00    +0.000 A 
ATOM      4  C   UNL     1      36.691  -0.827  18.895  0.00  0.00    +0.000 A 
ATOM      5  C   UNL     1      35.372  -0.446  18.833  0.00  0.00    +0.000 A 
ATOM      6  C   UNL     1      34.707  -0.434  17.630  0.00  0.00    +0.000 A 
ATOM      7  C   UNL     1      35.346  -0.801  16.477  0.00  0.00    +0.000 A 
ATOM      8  C   UNL     1      36.676  -1.189  16.516  0.00  0.00    +0.000 A 
ATOM      9  C   UNL     1      37.567  -1.605  15.532  0.00  0.00    +0.000 A 
ENDROOT
BRANCH   1  11
ATOM     10  N   UNL     1      40.702  -1.518  14.634  0.00  0.00    +0.000 NA
ATOM     11  C   UNL     1      39.968  -2.318  15.548  0.00  0.00    +0.000 C 
ATOM     12  O   UNL     1      40.441  -3.478  15.770  0.00  0.00    +0.000 OA
BRANCH  10  17
ATOM     13  C   UNL     1      44.289  -2.215  13.939  0.00  0.00    +0.000 A 
ATOM     14  C   UNL     1      44.241  -2.989  12.802  0.00  0.00    +0.000 A 
ATOM     15  C   UNL     1      42.999  -3.278  12.267  0.00  0.00    +0.000 A 
ATOM     16  C   UNL     1      41.847  -2.791  12.873  0.00  0.00    +0.000 A 
ATOM     17  C   UNL     1      41.905  -2.018  14.010  0.00  0.00    +0.000 A 
ATOM     18  C   UNL     1      43.154  -1.742  14.526  0.00  0.00    +0.000 A 
BRANCH  13  20
ATOM     19  C   UNL     1      46.001  -2.456  15.693  0.00  0.00    +0.000 C 
ATOM     20  O   UNL     1      45.559  -1.935  14.461  0.00  0.00    +0.000 OA
ENDBRANCH  13  20
BRANCH  16  21
ATOM     21  O   UNL     1      40.571  -3.052  12.376  0.00  0.00    +0.000 OA
ATOM     22  C   UNL     1      40.293  -2.591  11.061  0.00  0.00    +0.000 C 
ENDBRANCH  16  21
ENDBRANCH  10  17
ENDBRANCH   1  11
BRANCH   9  23
ATOM     23  C   UNL     1      37.293  -1.760  14.095  0.00  0.00    +0.000 C 
BRANCH  23  24
ATOM     24  S   UNL     1      37.932  -0.373  13.150  0.00  0.00    +0.000 S 
BRANCH  24  25
ATOM     25  C   UNL     1      36.552   0.767  12.830  0.00  0.00    +0.000 C 
BRANCH  25  26
ATOM     26  C   UNL     1      36.396   1.592  14.069  0.00  0.00    +0.000 A 
ATOM     27  C   UNL     1      35.146   2.043  14.494  0.00  0.00    +0.000 A 
ATOM     28  C   UNL     1      35.029   2.802  15.638  0.00  0.00    +0.000 A 
ATOM     29  C   UNL     1      36.131   3.135  16.389  0.00  0.00    +0.000 A 
ATOM     30  C   UNL     1      37.368   2.695  15.978  0.00  0.00    +0.000 A 
ATOM     31  C   UNL     1      37.487   1.934  14.831  0.00  0.00    +0.000 A 
ENDBRANCH  25  26
ENDBRANCH  24  25
ENDBRANCH  23  24
ENDBRANCH   9  23
TORSDOF 8
ENDMDL
MODEL 2
REMARK VINA RESULT:      -6.8      3.411      6.983
REMARK  Name = 
REMARK  8 active torsions:
REMARK  status: ('A' for Active; 'I' for Inactive)
REMARK    1  A    between atoms: O_2  and  C_3
REMARK    2  A    between atoms: C_6  and  O_7
REMARK    3  A    between atoms: C_9  and  N_10
REMARK    4  A    between atoms: C_11  and  C_13
REMARK    5  A    between atoms: C_21  and  C_22
REMARK    6  A    between atoms: C_22  and  S_23
REMARK    7  A    between atoms: S_23  and  C_24
REMARK    8  A    between atoms: C_24  and  C_25
REMARK                            x       y       z     vdW  Elec       q    Type
REMARK                         _______ _______ _______ _____ _____    ______ ____
ROOT
ATOM      1  C   UNL     1      36.975   0.733  16.108  0.00  0.00    +0.000 A 
ATOM      2  O   UNL     1      37.224  -0.263  16.917  0.00  0.00    +0.000 OA
ATOM      3  C   UNL     1      37.080  -1.423  16.320  0.00  0.00    +0.000 A 
ATOM      4  C   UNL     1      37.236  -2.738  16.776  0.00  0.00    +0.000 A 
ATOM      5  C   UNL     1      37.012  -3.772  15.898  0.00  0.00    +0.000 A 
ATOM      6  C   UNL     1      36.643  -3.512  14.600  0.00  0.00    +0.000 A 
ATOM      7  C   UNL     1      36.491  -2.225  14.161  0.00  0.00    +0.000 A 
ATOM      8  C   UNL     1      36.712  -1.167  15.030  0.00  0.00    +0.000 A 
ATOM      9  C   UNL     1      36.638   0.213  14.875  0.00  0.00    +0.000 A 
ENDROOT
BRANCH   1  11
ATOM     10  N   UNL     1      38.177   2.953  16.150  0.00  0.00    +0.000 NA
ATOM     11  C   UNL     1      37.028   2.160  16.401  0.00  0.00    +0.000 C 
ATOM     12  O   UNL     1      36.032   2.773  16.904  0.00  0.00    +0.000 OA
BRANCH  10  17
ATOM     13  C   UNL     1      38.577   6.161  17.989  0.00  0.00    +0.000 A 
ATOM     14  C   UNL     1      38.209   7.103  17.055  0.00  0.00    +0.000 A 
ATOM     15  C   UNL     1      37.825   6.658  15.803  0.00  0.00    +0.000 A 
ATOM     16  C   UNL     1      37.817   5.298  15.517  0.00  0.00    +0.000 A 
ATOM     17  C   UNL     1      38.187   4.364  16.457  0.00  0.00    +0.000 A 
ATOM     18  C   UNL     1      38.566   4.830  17.699  0.00  0.00    +0.000 A 
BRANCH  13  20
ATOM     19  C   UNL     1      40.276   6.507  19.738  0.00  0.00    +0.000 C 
ATOM     20  O   UNL     1      38.961   6.636  19.250  0.00  0.00    +0.000 OA
ENDBRANCH  13  20
BRANCH  16  21
ATOM     21  O   UNL     1      37.439   4.796  14.273  0.00  0.00    +0.000 OA
ATOM     22  C   UNL     1      36.847   5.717  13.367  0.00  0.00    +0.000 C 
ENDBRANCH  16  21
ENDBRANCH  10  17
ENDBRANCH   1  11
BRANCH   9  23
ATOM     23  C   UNL     1      36.293   0.950  13.649  0.00  0.00    +0.000 C 
BRANCH  23  24
ATOM     24  S   UNL     1      37.503   0.672  12.351  0.00  0.00    +0.000 S 
BRANCH  24  25
ATOM     25  C   UNL     1      39.153   0.972  13.054  0.00  0.00    +0.000 C 
BRANCH  25  26
ATOM     26  C   UNL     1      39.697  -0.371  13.431  0.00  0.00    +0.000 A 
ATOM     27  C   UNL     1      39.658  -1.450  12.547  0.00  0.00    +0.000 A 
ATOM     28  C   UNL     1      40.165  -2.675  12.919  0.00  0.00    +0.000 A 
ATOM     29  C   UNL     1      40.720  -2.871  14.161  0.00  0.00    +0.000 A 
ATOM     30  C   UNL     1      40.762  -1.813  15.040  0.00  0.00    +0.000 A 
ATOM     31  C   UNL     1      40.254  -0.583  14.669  0.00  0.00    +0.000 A 
ENDBRANCH  25  26
ENDBRANCH  24  25
ENDBRANCH  23  24
ENDBRANCH   9  23
TORSDOF 8
ENDMDL
MODEL 3
REMARK VINA RESULT:      -6.6      3.618      6.261
REMARK  Name = 
REMARK  8 active torsions:
REMARK  status: ('A' for Active; 'I' for Inactive)
REMARK    1  A    between atoms: O_2  and  C_3
REMARK    2  A    between atoms: C_6  and  O_7
REMARK    3  A    between atoms: C_9  and  N_10
REMARK    4  A    between atoms: C_11  and  C_13
REMARK    5  A    between atoms: C_21  and  C_22
REMARK    6  A    between atoms: C_22  and  S_23
REMARK    7  A    between atoms: S_23  and  C_24
REMARK    8  A    between atoms: C_24  and  C_25
REMARK                            x       y       z     vdW  Elec       q    Type
REMARK                         _______ _______ _______ _____ _____    ______ ____
ROOT
ATOM      1  C   UNL     1      37.590   2.576  13.791  0.00  0.00    +0.000 A 
ATOM      2  O   UNL     1      37.690   3.014  12.563  0.00  0.00    +0.000 OA
ATOM      3  C   UNL     1      36.953   4.082  12.366  0.00  0.00    +0.000 A 
ATOM      4  C   UNL     1      36.745   4.882  11.236  0.00  0.00    +0.000 A 
ATOM      5  C   UNL     1      35.897   5.959  11.337  0.00  0.00    +0.000 A 
ATOM      6  C   UNL     1      35.269   6.239  12.527  0.00  0.00    +0.000 A 
ATOM      7  C   UNL     1      35.476   5.453  13.627  0.00  0.00    +0.000 A 
ATOM      8  C   UNL     1      36.327   4.361  13.548  0.00  0.00    +0.000 A 
ATOM      9  C   UNL     1      36.724   3.404  14.475  0.00  0.00    +0.000 A 
ENDROOT
BRANCH   1  11
ATOM     10  N   UNL     1      37.708   0.113  14.337  0.00  0.00    +0.000 NA
ATOM     11  C   UNL     1      38.253   1.423  14.386  0.00  0.00    +0.000 C 
ATOM     12  O   UNL     1      39.369   1.534  14.987  0.00  0.00    +0.000 OA
BRANCH  10  17
ATOM     13  C   UNL     1      38.804  -2.435  16.814  0.00  0.00    +0.000 A 
ATOM     14  C   UNL     1      39.737  -3.168  16.115  0.00  0.00    +0.000 A 
ATOM     15  C   UNL     1      39.998  -2.804  14.807  0.00  0.00    +0.000 A 
ATOM     16  C   UNL     1      39.330  -1.728  14.234  0.00  0.00    +0.000 A 
ATOM     17  C   UNL     1      38.399  -1.002  14.941  0.00  0.00    +0.000 A 
ATOM     18  C   UNL     1      38.154  -1.383  16.245  0.00  0.00    +0.000 A 
BRANCH  13  20
ATOM     19  C   UNL     1      37.854  -2.008  19.046  0.00  0.00    +0.000 C 
ATOM     20  O   UNL     1      38.558  -2.823  18.137  0.00  0.00    +0.000 OA
ENDBRANCH  13  20
BRANCH  16  21
ATOM     21  O   UNL     1      39.555  -1.319  12.921  0.00  0.00    +0.000 OA
ATOM     22  C   UNL     1      40.833  -0.767  12.636  0.00  0.00    +0.000 C 
ENDBRANCH  16  21
ENDBRANCH  10  17
ENDBRANCH   1  11
BRANCH   9  23
ATOM     23  C   UNL     1      36.316   3.314  15.886  0.00  0.00    +0.000 C 
BRANCH  23  24
ATOM     24  S   UNL     1      37.646   3.805  16.988  0.00  0.00    +0.000 S 
BRANCH  24  25
ATOM     25  C   UNL     1      38.158   5.487  16.527  0.00  0.00    +0.000 C 
BRANCH  25  26
ATOM     26  C   UNL     1      39.281   5.850  17.449  0.00  0.00    +0.000 A 
ATOM     27  C   UNL     1      40.568   6.096  16.970  0.00  0.00    +0.000 A 
ATOM     28  C   UNL     1      41.585   6.427  17.839  0.00  0.00    +0.000 A 
ATOM     29  C   UNL     1      41.363   6.525  19.191  0.00  0.00    +0.000 A 
ATOM     30  C   UNL     1      40.097   6.285  19.673  0.00  0.00    +0.000 A 
ATOM     31  C   UNL     1      39.077   5.952  18.803  0.00  0.00    +0.000 A 
ENDBRANCH  25  26
ENDBRANCH  24  25
ENDBRANCH  23  24
ENDBRANCH   9  23
TORSDOF 8
ENDMDL
MODEL 4
REMARK VINA RESULT:      -6.6      2.202      3.598
REMARK  Name = 
REMARK  8 active torsions:
REMARK  status: ('A' for Active; 'I' for Inactive)
REMARK    1  A    between atoms: O_2  and  C_3
REMARK    2  A    between atoms: C_6  and  O_7
REMARK    3  A    between atoms: C_9  and  N_10
REMARK    4  A    between atoms: C_11  and  C_13
REMARK    5  A    between atoms: C_21  and  C_22
REMARK    6  A    between atoms: C_22  and  S_23
REMARK    7  A    between atoms: S_23  and  C_24
REMARK    8  A    between atoms: C_24  and  C_25
REMARK                            x       y       z     vdW  Elec       q    Type
REMARK                         _______ _______ _______ _____ _____    ______ ____
ROOT
ATOM      1  C   UNL     1      40.131  -2.637  15.131  0.00  0.00    +0.000 A 
ATOM      2  O   UNL     1      40.011  -3.659  15.937  0.00  0.00    +0.000 OA
ATOM      3  C   UNL     1      39.292  -3.364  16.994  0.00  0.00    +0.000 A 
ATOM      4  C   UNL     1      38.903  -4.122  18.105  0.00  0.00    +0.000 A 
ATOM      5  C   UNL     1      38.131  -3.525  19.074  0.00  0.00    +0.000 A 
ATOM      6  C   UNL     1      37.752  -2.210  18.947  0.00  0.00    +0.000 A 
ATOM      7  C   UNL     1      38.136  -1.475  17.859  0.00  0.00    +0.000 A 
ATOM      8  C   UNL     1      38.916  -2.056  16.871  0.00  0.00    +0.000 A 
ATOM      9  C   UNL     1      39.446  -1.572  15.680  0.00  0.00    +0.000 A 
ENDROOT
BRANCH   1  11
ATOM     10  N   UNL     1      40.301  -3.055  12.646  0.00  0.00    +0.000 NA
ATOM     11  C   UNL     1      40.850  -2.575  13.864  0.00  0.00    +0.000 C 
ATOM     12  O   UNL     1      42.019  -2.080  13.786  0.00  0.00    +0.000 OA
BRANCH  10  17
ATOM     13  C   UNL     1      42.753  -3.804   9.952  0.00  0.00    +0.000 A 
ATOM     14  C   UNL     1      42.499  -2.824   9.019  0.00  0.00    +0.000 A 
ATOM     15  C   UNL     1      41.501  -1.908   9.297  0.00  0.00    +0.000 A 
ATOM     16  C   UNL     1      40.788  -1.992  10.487  0.00  0.00    +0.000 A 
ATOM     17  C   UNL     1      41.049  -2.976  11.414  0.00  0.00    +0.000 A 
ATOM     18  C   UNL     1      42.049  -3.878  11.115  0.00  0.00    +0.000 A 
BRANCH  13  20
ATOM     19  C   UNL     1      44.729  -5.126  10.594  0.00  0.00    +0.000 C 
ATOM     20  O   UNL     1      43.769  -4.719   9.647  0.00  0.00    +0.000 OA
ENDBRANCH  13  20
BRANCH  16  21
ATOM     21  O   UNL     1      39.773  -1.096  10.818  0.00  0.00    +0.000 OA
ATOM     22  C   UNL     1      39.748   0.131  10.101  0.00  0.00    +0.000 C 
ENDBRANCH  16  21
ENDBRANCH  10  17
ENDBRANCH   1  11
BRANCH   9  23
ATOM     23  C   UNL     1      39.288  -0.219  15.124  0.00  0.00    +0.000 C 
BRANCH  23  24
ATOM     24  S   UNL     1      37.996  -0.165  13.878  0.00  0.00    +0.000 S 
BRANCH  24  25
ATOM     25  C   UNL     1      36.552   0.665  14.609  0.00  0.00    +0.000 C 
BRANCH  25  26
ATOM     26  C   UNL     1      35.841  -0.371  15.423  0.00  0.00    +0.000 A 
ATOM     27  C   UNL     1      35.130  -0.034  16.575  0.00  0.00    +0.000 A 
ATOM     28  C   UNL     1      34.484  -1.007  17.306  0.00  0.00    +0.000 A 
ATOM     29  C   UNL     1      34.521  -2.326  16.927  0.00  0.00    +0.000 A 
ATOM     30  C   UNL     1      35.220  -2.670  15.792  0.00  0.00    +0.000 A 
ATOM     31  C   UNL     1      35.868  -1.695  15.058  0.00  0.00    +0.000 A 
ENDBRANCH  25  26
ENDBRANCH  24  25
ENDBRANCH  23  24
ENDBRANCH   9  23
TORSDOF 8
ENDMDL
MODEL 5
REMARK VINA RESULT:      -6.5      1.020      2.326
REMARK  Name = 
REMARK  8 active torsions:
REMARK  status: ('A' for Active; 'I' for Inactive)
REMARK    1  A    between atoms: O_2  and  C_3
REMARK    2  A    between atoms: C_6  and  O_7
REMARK    3  A    between atoms: C_9  and  N_10
REMARK    4  A    between atoms: C_11  and  C_13
REMARK    5  A    between atoms: C_21  and  C_22
REMARK    6  A    between atoms: C_22  and  S_23
REMARK    7  A    between atoms: S_23  and  C_24
REMARK    8  A    between atoms: C_24  and  C_25
REMARK                            x       y       z     vdW  Elec       q    Type
REMARK                         _______ _______ _______ _____ _____    ______ ____
ROOT
ATOM      1  C   UNL     1      39.005  -1.932  15.908  0.00  0.00    +0.000 A 
ATOM      2  O   UNL     1      38.849  -1.715  17.188  0.00  0.00    +0.000 OA
ATOM      3  C   UNL     1      37.631  -1.315  17.469  0.00  0.00    +0.000 A 
ATOM      4  C   UNL     1      37.013  -0.970  18.676  0.00  0.00    +0.000 A 
ATOM      5  C   UNL     1      35.694  -0.582  18.656  0.00  0.00    +0.000 A 
ATOM      6  C   UNL     1      35.003  -0.536  17.469  0.00  0.00    +0.000 A 
ATOM      7  C   UNL     1      35.613  -0.874  16.292  0.00  0.00    +0.000 A 
ATOM      8  C   UNL     1      36.942  -1.268  16.290  0.00  0.00    +0.000 A 
ATOM      9  C   UNL     1      37.809  -1.661  15.275  0.00  0.00    +0.000 A 
ENDROOT
BRANCH   1  11
ATOM     10  N   UNL     1      40.877  -1.591  14.248  0.00  0.00    +0.000 NA
ATOM     11  C   UNL     1      40.207  -2.383  15.217  0.00  0.00    +0.000 C 
ATOM     12  O   UNL     1      40.721  -3.522  15.452  0.00  0.00    +0.000 OA
BRANCH  10  17
ATOM     13  C   UNL     1      43.112  -3.370  11.865  0.00  0.00    +0.000 A 
ATOM     14  C   UNL     1      44.371  -3.019  12.298  0.00  0.00    +0.000 A 
ATOM     15  C   UNL     1      44.468  -2.182  13.395  0.00  0.00    +0.000 A 
ATOM     16  C   UNL     1      43.320  -1.721  14.027  0.00  0.00    +0.000 A 
ATOM     17  C   UNL     1      42.065  -2.077  13.586  0.00  0.00    +0.000 A 
ATOM     18  C   UNL     1      41.992  -2.913  12.491  0.00  0.00    +0.000 A 
BRANCH  13  20
ATOM     19  C   UNL     1      41.824  -4.513  10.104  0.00  0.00    +0.000 C 
ATOM     20  O   UNL     1      43.039  -4.219  10.753  0.00  0.00    +0.000 OA
ENDBRANCH  13  20
BRANCH  16  21
ATOM     21  O   UNL     1      43.361  -0.877  15.135  0.00  0.00    +0.000 OA
ATOM     22  C   UNL     1      44.628  -0.327  15.471  0.00  0.00    +0.000 C 
ENDBRANCH  16  21
ENDBRANCH  10  17
ENDBRANCH   1  11
BRANCH   9  23
ATOM     23  C   UNL     1      37.501  -1.776  13.841  0.00  0.00    +0.000 C 
BRANCH  23  24
ATOM     24  S   UNL     1      38.019  -0.314  12.937  0.00  0.00    +0.000 S 
BRANCH  24  25
ATOM     25  C   UNL     1      36.564   0.759  12.735  0.00  0.00    +0.000 C 
BRANCH  25  26
ATOM     26  C   UNL     1      36.488   1.597  13.973  0.00  0.00    +0.000 A 
ATOM     27  C   UNL     1      35.265   2.030  14.488  0.00  0.00    +0.000 A 
ATOM     28  C   UNL     1      35.222   2.801  15.629  0.00  0.00    +0.000 A 
ATOM     29  C   UNL     1      36.371   3.164  16.289  0.00  0.00    +0.000 A 
ATOM     30  C   UNL     1      37.582   2.742  15.789  0.00  0.00    +0.000 A 
ATOM     31  C   UNL     1      37.627   1.969  14.644  0.00  0.00    +0.000 A 
ENDBRANCH  25  26
ENDBRANCH  24  25
ENDBRANCH  23  24
ENDBRANCH   9  23
TORSDOF 8
ENDMDL
MODEL 6
REMARK VINA RESULT:      -6.5      4.033      6.895
REMARK  Name = 
REMARK  8 active torsions:
REMARK  status: ('A' for Active; 'I' for Inactive)
REMARK    1  A    between atoms: O_2  and  C_3
REMARK    2  A    between atoms: C_6  and  O_7
REMARK    3  A    between atoms: C_9  and  N_10
REMARK    4  A    between atoms: C_11  and  C_13
REMARK    5  A    between atoms: C_21  and  C_22
REMARK    6  A    between atoms: C_22  and  S_23
REMARK    7  A    between atoms: S_23  and  C_24
REMARK    8  A    between atoms: C_24  and  C_25
REMARK                            x       y       z     vdW  Elec       q    Type
REMARK                         _______ _______ _______ _____ _____    ______ ____
ROOT
ATOM      1  C   UNL     1      36.720   2.275  16.505  0.00  0.00    +0.000 A 
ATOM      2  O   UNL     1      36.522   1.838  17.722  0.00  0.00    +0.000 OA
ATOM      3  C   UNL     1      35.965   0.650  17.727  0.00  0.00    +0.000 A 
ATOM      4  C   UNL     1      35.575  -0.197  18.771  0.00  0.00    +0.000 A 
ATOM      5  C   UNL     1      35.007  -1.410  18.460  0.00  0.00    +0.000 A 
ATOM      6  C   UNL     1      34.830  -1.777  17.147  0.00  0.00    +0.000 A 
ATOM      7  C   UNL     1      35.214  -0.944  16.132  0.00  0.00    +0.000 A 
ATOM      8  C   UNL     1      35.788   0.284  16.423  0.00  0.00    +0.000 A 
ATOM      9  C   UNL     1      36.266   1.316  15.623  0.00  0.00    +0.000 A 
ENDROOT
BRANCH   1  11
ATOM     10  N   UNL     1      38.648   3.903  16.408  0.00  0.00    +0.000 NA
ATOM     11  C   UNL     1      37.311   3.543  16.095  0.00  0.00    +0.000 C 
ATOM     12  O   UNL     1      36.650   4.399  15.425  0.00  0.00    +0.000 OA
BRANCH  10  17
ATOM     13  C   UNL     1      40.306   6.517  14.345  0.00  0.00    +0.000 A 
ATOM     14  C   UNL     1      40.252   7.631  15.152  0.00  0.00    +0.000 A 
ATOM     15  C   UNL     1      39.655   7.503  16.394  0.00  0.00    +0.000 A 
ATOM     16  C   UNL     1      39.135   6.279  16.796  0.00  0.00    +0.000 A 
ATOM     17  C   UNL     1      39.194   5.171  15.982  0.00  0.00    +0.000 A 
ATOM     18  C   UNL     1      39.793   5.321  14.748  0.00  0.00    +0.000 A 
BRANCH  13  20
ATOM     19  C   UNL     1      42.300   6.884  12.947  0.00  0.00    +0.000 C 
ATOM     20  O   UNL     1      40.915   6.672  13.093  0.00  0.00    +0.000 OA
ENDBRANCH  13  20
BRANCH  16  21
ATOM     21  O   UNL     1      38.524   6.094  18.035  0.00  0.00    +0.000 OA
ATOM     22  C   UNL     1      39.372   6.132  19.175  0.00  0.00    +0.000 C 
ENDBRANCH  16  21
ENDBRANCH  10  17
ENDBRANCH   1  11
BRANCH   9  23
ATOM     23  C   UNL     1      36.294   1.358  14.152  0.00  0.00    +0.000 C 
BRANCH  23  24
ATOM     24  S   UNL     1      37.943   1.037  13.517  0.00  0.00    +0.000 S 
BRANCH  24  25
ATOM     25  C   UNL     1      37.960  -0.650  12.839  0.00  0.00    +0.000 C 
BRANCH  25  26
ATOM     26  C   UNL     1      38.072  -1.571  14.014  0.00  0.00    +0.000 A 
ATOM     27  C   UNL     1      37.404  -2.796  14.049  0.00  0.00    +0.000 A 
ATOM     28  C   UNL     1      37.524  -3.625  15.142  0.00  0.00    +0.000 A 
ATOM     29  C   UNL     1      38.297  -3.275  16.222  0.00  0.00    +0.000 A 
ATOM     30  C   UNL     1      38.960  -2.069  16.198  0.00  0.00    +0.000 A 
ATOM     31  C   UNL     1      38.841  -1.236  15.102  0.00  0.00    +0.000 A 
ENDBRANCH  25  26
ENDBRANCH  24  25
ENDBRANCH  23  24
ENDBRANCH   9  23
TORSDOF 8
ENDMDL
MODEL 7
REMARK VINA RESULT:      -6.5      3.795      7.546
REMARK  Name = 
REMARK  8 active torsions:
REMARK  status: ('A' for Active; 'I' for Inactive)
REMARK    1  A    between atoms: O_2  and  C_3
REMARK    2  A    between atoms: C_6  and  O_7
REMARK    3  A    between atoms: C_9  and  N_10
REMARK    4  A    between atoms: C_11  and  C_13
REMARK    5  A    between atoms: C_21  and  C_22
REMARK    6  A    between atoms: C_22  and  S_23
REMARK    7  A    between atoms: S_23  and  C_24
REMARK    8  A    between atoms: C_24  and  C_25
REMARK                            x       y       z     vdW  Elec       q    Type
REMARK                         _______ _______ _______ _____ _____    ______ ____
ROOT
ATOM      1  C   UNL     1      39.527   1.004  13.936  0.00  0.00    +0.000 A 
ATOM      2  O   UNL     1      40.648   0.390  13.659  0.00  0.00    +0.000 OA
ATOM      3  C   UNL     1      41.565   1.223  13.226  0.00  0.00    +0.000 A 
ATOM      4  C   UNL     1      42.889   1.028  12.817  0.00  0.00    +0.000 A 
ATOM      5  C   UNL     1      43.620   2.118  12.407  0.00  0.00    +0.000 A 
ATOM      6  C   UNL     1      43.055   3.371  12.402  0.00  0.00    +0.000 A 
ATOM      7  C   UNL     1      41.759   3.554  12.803  0.00  0.00    +0.000 A 
ATOM      8  C   UNL     1      41.004   2.469  13.219  0.00  0.00    +0.000 A 
ATOM      9  C   UNL     1      39.694   2.348  13.672  0.00  0.00    +0.000 A 
ENDROOT
BRANCH   1  11
ATOM     10  N   UNL     1      38.179  -0.158  15.728  0.00  0.00    +0.000 NA
ATOM     11  C   UNL     1      38.288   0.422  14.437  0.00  0.00    +0.000 C 
ATOM     12  O   UNL     1      37.228   0.406  13.733  0.00  0.00    +0.000 OA
BRANCH  10  17
ATOM     13  C   UNL     1      35.388  -2.550  16.295  0.00  0.00    +0.000 A 
ATOM     14  C   UNL     1      34.512  -1.827  17.072  0.00  0.00    +0.000 A 
ATOM     15  C   UNL     1      34.860  -0.531  17.406  0.00  0.00    +0.000 A 
ATOM     16  C   UNL     1      36.062   0.006  16.961  0.00  0.00    +0.000 A 
ATOM     17  C   UNL     1      36.932  -0.725  16.184  0.00  0.00    +0.000 A 
ATOM     18  C   UNL     1      36.564  -2.015  15.863  0.00  0.00    +0.000 A 
BRANCH  13  20
ATOM     19  C   UNL     1      33.845  -4.152  15.237  0.00  0.00    +0.000 C 
ATOM     20  O   UNL     1      35.012  -3.860  15.970  0.00  0.00    +0.000 OA
ENDBRANCH  13  20
BRANCH  16  21
ATOM     21  O   UNL     1      36.462   1.306  17.268  0.00  0.00    +0.000 OA
ATOM     22  C   UNL     1      35.710   2.359  16.680  0.00  0.00    +0.000 C 
ENDBRANCH  16  21
ENDBRANCH  10  17
ENDBRANCH   1  11
BRANCH   9  23
ATOM     23  C   UNL     1      38.713   3.430  13.845  0.00  0.00    +0.000 C 
BRANCH  23  24
ATOM     24  S   UNL     1      38.778   4.118  15.503  0.00  0.00    +0.000 S 
BRANCH  24  25
ATOM     25  C   UNL     1      39.957   5.502  15.485  0.00  0.00    +0.000 C 
BRANCH  25  26
ATOM     26  C   UNL     1      40.256   5.815  16.919  0.00  0.00    +0.000 A 
ATOM     27  C   UNL     1      39.307   5.618  17.922  0.00  0.00    +0.000 A 
ATOM     28  C   UNL     1      39.607   5.914  19.234  0.00  0.00    +0.000 A 
ATOM     29  C   UNL     1      40.839   6.407  19.590  0.00  0.00    +0.000 A 
ATOM     30  C   UNL     1      41.782   6.605  18.607  0.00  0.00    +0.000 A 
ATOM     31  C   UNL     1      41.482   6.308  17.291  0.00  0.00    +0.000 A 
ENDBRANCH  25  26
ENDBRANCH  24  25
ENDBRANCH  23  24
ENDBRANCH   9  23
TORSDOF 8
ENDMDL
MODEL 8
REMARK VINA RESULT:      -6.5      3.826      7.958
REMARK  Name = 
REMARK  8 active torsions:
REMARK  status: ('A' for Active; 'I' for Inactive)
REMARK    1  A    between atoms: O_2  and  C_3
REMARK    2  A    between atoms: C_6  and  O_7
REMARK    3  A    between atoms: C_9  and  N_10
REMARK    4  A    between atoms: C_11  and  C_13
REMARK    5  A    between atoms: C_21  and  C_22
REMARK    6  A    between atoms: C_22  and  S_23
REMARK    7  A    between atoms: S_23  and  C_24
REMARK    8  A    between atoms: C_24  and  C_25
REMARK                            x       y       z     vdW  Elec       q    Type
REMARK                         _______ _______ _______ _____ _____    ______ ____
ROOT
ATOM      1  C   UNL     1      38.815   1.366  14.674  0.00  0.00    +0.000 A 
ATOM      2  O   UNL     1      40.092   1.161  14.481  0.00  0.00    +0.000 OA
ATOM      3  C   UNL     1      40.383  -0.119  14.471  0.00  0.00    +0.000 A 
ATOM      4  C   UNL     1      41.593  -0.804  14.301  0.00  0.00    +0.000 A 
ATOM      5  C   UNL     1      41.584  -2.178  14.338  0.00  0.00    +0.000 A 
ATOM      6  C   UNL     1      40.407  -2.859  14.538  0.00  0.00    +0.000 A 
ATOM      7  C   UNL     1      39.229  -2.184  14.704  0.00  0.00    +0.000 A 
ATOM      8  C   UNL     1      39.215  -0.798  14.671  0.00  0.00    +0.000 A 
ATOM      9  C   UNL     1      38.196   0.139  14.804  0.00  0.00    +0.000 A 
ENDROOT
BRANCH   1  11
ATOM     10  N   UNL     1      37.425   3.204  13.642  0.00  0.00    +0.000 NA
ATOM     11  C   UNL     1      38.115   2.642  14.747  0.00  0.00    +0.000 C 
ATOM     12  O   UNL     1      38.086   3.324  15.822  0.00  0.00    +0.000 OA
BRANCH  10  17
ATOM     13  C   UNL     1      36.740   6.860  13.581  0.00  0.00    +0.000 A 
ATOM     14  C   UNL     1      35.425   6.937  13.982  0.00  0.00    +0.000 A 
ATOM     15  C   UNL     1      34.767   5.755  14.274  0.00  0.00    +0.000 A 
ATOM     16  C   UNL     1      35.431   4.540  14.161  0.00  0.00    +0.000 A 
ATOM     17  C   UNL     1      36.745   4.473  13.759  0.00  0.00    +0.000 A 
ATOM     18  C   UNL     1      37.381   5.663  13.472  0.00  0.00    +0.000 A 
BRANCH  13  20
ATOM     19  C   UNL     1      36.912   8.962  12.308  0.00  0.00    +0.000 C 
ATOM     20  O   UNL     1      37.384   8.069  13.291  0.00  0.00    +0.000 OA
ENDBRANCH  13  20
BRANCH  16  21
ATOM     21  O   UNL     1      34.816   3.320  14.443  0.00  0.00    +0.000 OA
ATOM     22  C   UNL     1      34.463   3.084  15.799  0.00  0.00    +0.000 C 
ENDBRANCH  16  21
ENDBRANCH  10  17
ENDBRANCH   1  11
BRANCH   9  23
ATOM     23  C   UNL     1      36.765  -0.130  15.018  0.00  0.00    +0.000 C 
BRANCH  23  24
ATOM     24  S   UNL     1      36.345  -0.103  16.764  0.00  0.00    +0.000 S 
BRANCH  24  25
ATOM     25  C   UNL     1      35.460  -1.644  17.148  0.00  0.00    +0.000 C 
BRANCH  25  26
ATOM     26  C   UNL     1      36.500  -2.719  17.213  0.00  0.00    +0.000 A 
ATOM     27  C   UNL     1      36.380  -3.898  16.476  0.00  0.00    +0.000 A 
ATOM     28  C   UNL     1      37.351  -4.872  16.554  0.00  0.00    +0.000 A 
ATOM     29  C   UNL     1      38.458  -4.713  17.353  0.00  0.00    +0.000 A 
ATOM     30  C   UNL     1      38.586  -3.554  18.083  0.00  0.00    +0.000 A 
ATOM     31  C   UNL     1      37.612  -2.576  18.006  0.00  0.00    +0.000 A 
ENDBRANCH  25  26
ENDBRANCH  24  25
ENDBRANCH  23  24
ENDBRANCH   9  23
TORSDOF 8
ENDMDL
MODEL 9
REMARK VINA RESULT:      -6.4      1.775      3.843
REMARK  Name = 
REMARK  8 active torsions:
REMARK  status: ('A' for Active; 'I' for Inactive)
REMARK    1  A    between atoms: O_2  and  C_3
REMARK    2  A    between atoms: C_6  and  O_7
REMARK    3  A    between atoms: C_9  and  N_10
REMARK    4  A    between atoms: C_11  and  C_13
REMARK    5  A    between atoms: C_21  and  C_22
REMARK    6  A    between atoms: C_22  and  S_23
REMARK    7  A    between atoms: S_23  and  C_24
REMARK    8  A    between atoms: C_24  and  C_25
REMARK                            x       y       z     vdW  Elec       q    Type
REMARK                         _______ _______ _______ _____ _____    ______ ____
ROOT
ATOM      1  C   UNL     1      39.806  -0.557  14.397  0.00  0.00    +0.000 A 
ATOM      2  O   UNL     1      39.658   0.604  14.982  0.00  0.00    +0.000 OA
ATOM      3  C   UNL     1      38.436   1.062  14.851  0.00  0.00    +0.000 A 
ATOM      4  C   UNL     1      37.822   2.238  15.300  0.00  0.00    +0.000 A 
ATOM      5  C   UNL     1      36.497   2.446  15.002  0.00  0.00    +0.000 A 
ATOM      6  C   UNL     1      35.793   1.513  14.278  0.00  0.00    +0.000 A 
ATOM      7  C   UNL     1      36.398   0.367  13.842  0.00  0.00    +0.000 A 
ATOM      8  C   UNL     1      37.735   0.137  14.130  0.00  0.00    +0.000 A 
ATOM      9  C   UNL     1      38.599  -0.910  13.829  0.00  0.00    +0.000 A 
ENDROOT
BRANCH   1  11
ATOM     10  N   UNL     1      42.143  -1.010  13.554  0.00  0.00    +0.000 NA
ATOM     11  C   UNL     1      41.009  -1.376  14.326  0.00  0.00    +0.000 C 
ATOM     12  O   UNL     1      41.105  -2.474  14.962  0.00  0.00    +0.000 OA
BRANCH  10  17
ATOM     13  C   UNL     1      44.559  -3.645  12.527  0.00  0.00    +0.000 A 
ATOM     14  C   UNL     1      45.591  -3.488  13.425  0.00  0.00    +0.000 A 
ATOM     15  C   UNL     1      45.474  -2.493  14.378  0.00  0.00    +0.000 A 
ATOM     16  C   UNL     1      44.341  -1.688  14.413  0.00  0.00    +0.000 A 
ATOM     17  C   UNL     1      43.315  -1.853  13.511  0.00  0.00    +0.000 A 
ATOM     18  C   UNL     1      43.453  -2.851  12.569  0.00  0.00    +0.000 A 
BRANCH  13  20
ATOM     19  C   UNL     1      45.937  -5.284  11.309  0.00  0.00    +0.000 C 
ATOM     20  O   UNL     1      44.701  -4.659  11.572  0.00  0.00    +0.000 OA
ENDBRANCH  13  20
BRANCH  16  21
ATOM     21  O   UNL     1      44.172  -0.672  15.352  0.00  0.00    +0.000 OA
ATOM     22  C   UNL     1      45.341  -0.225  16.025  0.00  0.00    +0.000 C 
ENDBRANCH  16  21
ENDBRANCH  10  17
ENDBRANCH   1  11
BRANCH   9  23
ATOM     23  C   UNL     1      38.280  -2.136  13.080  0.00  0.00    +0.000 C 
BRANCH  23  24
ATOM     24  S   UNL     1      37.172  -3.203  14.008  0.00  0.00    +0.000 S 
BRANCH  24  25
ATOM     25  C   UNL     1      37.750  -3.242  15.731  0.00  0.00    +0.000 C 
BRANCH  25  26
ATOM     26  C   UNL     1      36.885  -2.279  16.484  0.00  0.00    +0.000 A 
ATOM     27  C   UNL     1      37.416  -1.418  17.444  0.00  0.00    +0.000 A 
ATOM     28  C   UNL     1      36.598  -0.541  18.123  0.00  0.00    +0.000 A 
ATOM     29  C   UNL     1      35.248  -0.489  17.877  0.00  0.00    +0.000 A 
ATOM     30  C   UNL     1      34.715  -1.334  16.931  0.00  0.00    +0.000 A 
ATOM     31  C   UNL     1      35.534  -2.215  16.250  0.00  0.00    +0.000 A 
ENDBRANCH  25  26
ENDBRANCH  24  25
ENDBRANCH  23  24
ENDBRANCH   9  23
TORSDOF 8
ENDMDL
MODEL 10
REMARK VINA RESULT:      -6.4      4.079      6.926
REMARK  Name = 
REMARK  8 active torsions:
REMARK  status: ('A' for Active; 'I' for Inactive)
REMARK    1  A    between atoms: O_2  and  C_3
REMARK    2  A    between atoms: C_6  and  O_7
REMARK    3  A    between atoms: C_9  and  N_10
REMARK    4  A    between atoms: C_11  and  C_13
REMARK    5  A    between atoms: C_21  and  C_22
REMARK    6  A    between atoms: C_22  and  S_23
REMARK    7  A    between atoms: S_23  and  C_24
REMARK    8  A    between atoms: C_24  and  C_25
REMARK                            x       y       z     vdW  Elec       q    Type
REMARK                         _______ _______ _______ _____ _____    ______ ____
ROOT
ATOM      1  C   UNL     1      36.161   3.739  14.094  0.00  0.00    +0.000 A 
ATOM      2  O   UNL     1      34.956   4.232  14.224  0.00  0.00    +0.000 OA
ATOM      3  C   UNL     1      34.950   5.539  14.109  0.00  0.00    +0.000 A 
ATOM      4  C   UNL     1      33.916   6.481  14.174  0.00  0.00    +0.000 A 
ATOM      5  C   UNL     1      34.224   7.811  14.010  0.00  0.00    +0.000 A 
ATOM      6  C   UNL     1      35.523   8.201  13.788  0.00  0.00    +0.000 A 
ATOM      7  C   UNL     1      36.529   7.275  13.726  0.00  0.00    +0.000 A 
ATOM      8  C   UNL     1      36.241   5.929  13.889  0.00  0.00    +0.000 A 
ATOM      9  C   UNL     1      37.034   4.786  13.876  0.00  0.00    +0.000 A 
ENDROOT
BRANCH   1  11
ATOM     10  N   UNL     1      37.000   1.722  15.361  0.00  0.00    +0.000 NA
ATOM     11  C   UNL     1      36.568   2.341  14.159  0.00  0.00    +0.000 C 
ATOM     12  O   UNL     1      36.554   1.596  13.128  0.00  0.00    +0.000 OA
BRANCH  10  17
ATOM     13  C   UNL     1      39.039  -1.371  15.034  0.00  0.00    +0.000 A 
ATOM     14  C   UNL     1      38.166  -2.362  15.420  0.00  0.00    +0.000 A 
ATOM     15  C   UNL     1      36.886  -1.989  15.792  0.00  0.00    +0.000 A 
ATOM     16  C   UNL     1      36.515  -0.650  15.768  0.00  0.00    +0.000 A 
ATOM     17  C   UNL     1      37.395   0.334  15.381  0.00  0.00    +0.000 A 
ATOM     18  C   UNL     1      38.665  -0.061  15.014  0.00  0.00    +0.000 A 
BRANCH  13  20
ATOM     19  C   UNL     1      41.319  -0.858  14.255  0.00  0.00    +0.000 C 
ATOM     20  O   UNL     1      40.328  -1.774  14.662  0.00  0.00    +0.000 OA
ENDBRANCH  13  20
BRANCH  16  21
ATOM     21  O   UNL     1      35.239  -0.220  16.132  0.00  0.00    +0.000 OA
ATOM     22  C   UNL     1      34.619  -0.906  17.210  0.00  0.00    +0.000 C 
ENDBRANCH  16  21
ENDBRANCH  10  17
ENDBRANCH   1  11
BRANCH   9  23
ATOM     23  C   UNL     1      38.487   4.717  13.658  0.00  0.00    +0.000 C 
BRANCH  23  24
ATOM     24  S   UNL     1      39.372   4.464  15.200  0.00  0.00    +0.000 S 
BRANCH  24  25
ATOM     25  C   UNL     1      38.500   5.388  16.501  0.00  0.00    +0.000 C 
BRANCH  25  26
ATOM     26  C   UNL     1      39.542   5.792  17.497  0.00  0.00    +0.000 A 
ATOM     27  C   UNL     1      39.257   5.867  18.861  0.00  0.00    +0.000 A 
ATOM     28  C   UNL     1      40.234   6.242  19.758  0.00  0.00    +0.000 A 
ATOM     29  C   UNL     1      41.506   6.550  19.340  0.00  0.00    +0.000 A 
ATOM     30  C   UNL     1      41.797   6.478  17.997  0.00  0.00    +0.000 A 
ATOM     31  C   UNL     1      40.818   6.103  17.096  0.00  0.00    +0.000 A 
ENDBRANCH  25  26
ENDBRANCH  24  25
ENDBRANCH  23  24
ENDBRANCH   9  23
TORSDOF 8
ENDMDL
