MODEL 1
REMARK VINA RESULT:      -5.5      0.000      0.000
REMARK  Name = 
REMARK  5 active torsions:
REMARK  status: ('A' for Active; 'I' for Inactive)
REMARK    1  A    between atoms: C_2  and  C_3
REMARK    2  A    between atoms: N_7  and  C_8
REMARK    3  A    between atoms: C_8  and  N_10
REMARK    4  A    between atoms: N_10  and  C_11
REMARK    5  A    between atoms: C_11  and  C_12
REMARK                            x       y       z     vdW  Elec       q    Type
REMARK                         _______ _______ _______ _____ _____    ______ ____
ROOT
ATOM      1  C   UNL     1      30.405  24.555  23.848  0.00  0.00    +0.000 C 
ATOM      2  S   UNL     1      30.566  25.927  24.697  0.00  0.00    +0.000 S 
ENDROOT
BRANCH   1   7
ATOM      3  C   UNL     1      27.018  24.028  23.208  0.00  0.00    +0.000 C 
ATOM      4  C   UNL     1      27.212  25.573  22.770  0.00  0.00    +0.000 C 
ATOM      5  C   UNL     1      27.939  25.631  21.485  0.00  0.00    +0.000 C 
ATOM      6  C   UNL     1      29.436  25.484  21.800  0.00  0.00    +0.000 C 
ATOM      7  N   UNL     1      29.445  24.448  22.853  0.00  0.00    +0.000 N 
ATOM      8  C   UNL     1      28.440  23.468  22.684  0.00  0.00    +0.000 C 
BRANCH   3  10
ATOM      9  O   UNL     1      25.291  22.681  22.237  0.00  0.00    +0.000 OA
ATOM     10  C   UNL     1      26.228  23.625  21.824  0.00  0.00    +0.000 C 
ENDBRANCH   3  10
ENDBRANCH   1   7
BRANCH   1  11
ATOM     11  N   UNL     1      31.283  23.504  24.178  0.00  0.00    +0.000 NA
BRANCH  11  12
ATOM     12  C   UNL     1      30.744  22.290  24.719  0.00  0.00    +0.000 C 
BRANCH  12  13
ATOM     13  C   UNL     1      30.142  22.425  26.043  0.00  0.00    +0.000 A 
ATOM     14  C   UNL     1      30.923  22.647  27.143  0.00  0.00    +0.000 A 
ATOM     15  C   UNL     1      30.414  22.784  28.429  0.00  0.00    +0.000 A 
ATOM     16  C   UNL     1      29.044  22.690  28.585  0.00  0.00    +0.000 A 
ATOM     17  C   UNL     1      28.212  22.469  27.510  0.00  0.00    +0.000 A 
ATOM     18  C   UNL     1      28.778  22.338  26.238  0.00  0.00    +0.000 A 
ENDBRANCH  12  13
ENDBRANCH  11  12
ENDBRANCH   1  11
TORSDOF 5
ENDMDL
MODEL 2
REMARK VINA RESULT:      -5.4     24.120     26.135
REMARK  Name = 
REMARK  5 active torsions:
REMARK  status: ('A' for Active; 'I' for Inactive)
REMARK    1  A    between atoms: C_2  and  C_3
REMARK    2  A    between atoms: N_7  and  C_8
REMARK    3  A    between atoms: C_8  and  N_10
REMARK    4  A    between atoms: N_10  and  C_11
REMARK    5  A    between atoms: C_11  and  C_12
REMARK                            x       y       z     vdW  Elec       q    Type
REMARK                         _______ _______ _______ _____ _____    ______ ____
ROOT
ATOM      1  C   UNL     1      34.711   0.406  37.129  0.00  0.00    +0.000 C 
ATOM      2  S   UNL     1      36.012   0.324  38.094  0.00  0.00    +0.000 S 
ENDROOT
BRANCH   1   7
ATOM      3  C   UNL     1      32.060  -1.252  35.584  0.00  0.00    +0.000 C 
ATOM      4  C   UNL     1      32.854  -0.625  34.321  0.00  0.00    +0.000 C 
ATOM      5  C   UNL     1      34.096  -1.391  34.093  0.00  0.00    +0.000 C 
ATOM      6  C   UNL     1      35.149  -0.859  35.078  0.00  0.00    +0.000 C 
ATOM      7  N   UNL     1      34.365  -0.663  36.315  0.00  0.00    +0.000 N 
ATOM      8  C   UNL     1      33.345  -1.625  36.491  0.00  0.00    +0.000 C 
BRANCH   3  10
ATOM      9  O   UNL     1      32.256  -3.609  35.972  0.00  0.00    +0.000 OA
ATOM     10  C   UNL     1      31.964  -2.750  34.914  0.00  0.00    +0.000 C 
ENDBRANCH   3  10
ENDBRANCH   1   7
BRANCH   1  11
ATOM     11  N   UNL     1      33.971   1.604  37.170  0.00  0.00    +0.000 NA
BRANCH  11  12
ATOM     12  C   UNL     1      34.617   2.833  36.811  0.00  0.00    +0.000 C 
BRANCH  12  13
ATOM     13  C   UNL     1      34.011   3.535  35.682  0.00  0.00    +0.000 A 
ATOM     14  C   UNL     1      33.612   4.837  35.804  0.00  0.00    +0.000 A 
ATOM     15  C   UNL     1      33.030   5.561  34.770  0.00  0.00    +0.000 A 
ATOM     16  C   UNL     1      32.853   4.914  33.561  0.00  0.00    +0.000 A 
ATOM     17  C   UNL     1      33.237   3.603  33.385  0.00  0.00    +0.000 A 
ATOM     18  C   UNL     1      33.818   2.922  34.460  0.00  0.00    +0.000 A 
ENDBRANCH  12  13
ENDBRANCH  11  12
ENDBRANCH   1  11
TORSDOF 5
ENDMDL
MODEL 3
REMARK VINA RESULT:      -5.3      2.206      3.138
REMARK  Name = 
REMARK  5 active torsions:
REMARK  status: ('A' for Active; 'I' for Inactive)
REMARK    1  A    between atoms: C_2  and  C_3
REMARK    2  A    between atoms: N_7  and  C_8
REMARK    3  A    between atoms: C_8  and  N_10
REMARK    4  A    between atoms: N_10  and  C_11
REMARK    5  A    between atoms: C_11  and  C_12
REMARK                            x       y       z     vdW  Elec       q    Type
REMARK                         _______ _______ _______ _____ _____    ______ ____
ROOT
ATOM      1  C   UNL     1      27.154  24.851  25.983  0.00  0.00    +0.000 C 
ATOM      2  S   UNL     1      27.659  26.080  26.912  0.00  0.00    +0.000 S 
ENDROOT
BRANCH   1   7
ATOM      3  C   UNL     1      29.128  24.590  23.121  0.00  0.00    +0.000 C 
ATOM      4  C   UNL     1      28.120  23.335  22.957  0.00  0.00    +0.000 C 
ATOM      5  C   UNL     1      26.782  23.828  22.572  0.00  0.00    +0.000 C 
ATOM      6  C   UNL     1      26.076  24.286  23.858  0.00  0.00    +0.000 C 
ATOM      7  N   UNL     1      27.162  24.959  24.601  0.00  0.00    +0.000 N 
ATOM      8  C   UNL     1      28.078  25.636  23.763  0.00  0.00    +0.000 C 
BRANCH   3  10
ATOM      9  O   UNL     1      29.768  24.361  20.823  0.00  0.00    +0.000 OA
ATOM     10  C   UNL     1      28.884  25.122  21.585  0.00  0.00    +0.000 C 
ENDBRANCH   3  10
ENDBRANCH   1   7
BRANCH   1  11
ATOM     11  N   UNL     1      26.716  23.692  26.655  0.00  0.00    +0.000 NA
BRANCH  11  12
ATOM     12  C   UNL     1      27.490  22.490  26.546  0.00  0.00    +0.000 C 
BRANCH  12  13
ATOM     13  C   UNL     1      28.797  22.543  27.196  0.00  0.00    +0.000 A 
ATOM     14  C   UNL     1      28.897  22.758  28.543  0.00  0.00    +0.000 A 
ATOM     15  C   UNL     1      30.108  22.819  29.222  0.00  0.00    +0.000 A 
ATOM     16  C   UNL     1      31.263  22.651  28.481  0.00  0.00    +0.000 A 
ATOM     17  C   UNL     1      31.218  22.432  27.122  0.00  0.00    +0.000 A 
ATOM     18  C   UNL     1      29.972  22.380  26.490  0.00  0.00    +0.000 A 
ENDBRANCH  12  13
ENDBRANCH  11  12
ENDBRANCH   1  11
TORSDOF 5
ENDMDL
MODEL 4
REMARK VINA RESULT:      -5.3      3.951      5.672
REMARK  Name = 
REMARK  5 active torsions:
REMARK  status: ('A' for Active; 'I' for Inactive)
REMARK    1  A    between atoms: C_2  and  C_3
REMARK    2  A    between atoms: N_7  and  C_8
REMARK    3  A    between atoms: C_8  and  N_10
REMARK    4  A    between atoms: N_10  and  C_11
REMARK    5  A    between atoms: C_11  and  C_12
REMARK                            x       y       z     vdW  Elec       q    Type
REMARK                         _______ _______ _______ _____ _____    ______ ____
ROOT
ATOM      1  C   UNL     1      25.547  24.432  25.979  0.00  0.00    +0.000 C 
ATOM      2  S   UNL     1      25.467  25.716  24.992  0.00  0.00    +0.000 S 
ENDROOT
BRANCH   1   7
ATOM      3  C   UNL     1      26.914  24.746  29.171  0.00  0.00    +0.000 C 
ATOM      4  C   UNL     1      26.228  26.195  28.949  0.00  0.00    +0.000 C 
ATOM      5  C   UNL     1      24.761  26.066  29.066  0.00  0.00    +0.000 C 
ATOM      6  C   UNL     1      24.236  25.558  27.714  0.00  0.00    +0.000 C 
ATOM      7  N   UNL     1      25.252  24.557  27.328  0.00  0.00    +0.000 N 
ATOM      8  C   UNL     1      25.791  23.852  28.429  0.00  0.00    +0.000 C 
BRANCH   3  10
ATOM      9  O   UNL     1      25.966  23.178  30.715  0.00  0.00    +0.000 OA
ATOM     10  C   UNL     1      26.246  24.542  30.659  0.00  0.00    +0.000 C 
ENDBRANCH   3  10
ENDBRANCH   1   7
BRANCH   1  11
ATOM     11  N   UNL     1      25.926  23.209  25.391  0.00  0.00    +0.000 NA
BRANCH  11  12
ATOM     12  C   UNL     1      26.970  23.202  24.408  0.00  0.00    +0.000 C 
BRANCH  12  13
ATOM     13  C   UNL     1      28.303  22.921  24.934  0.00  0.00    +0.000 A 
ATOM     14  C   UNL     1      28.475  22.570  26.244  0.00  0.00    +0.000 A 
ATOM     15  C   UNL     1      29.714  22.290  26.807  0.00  0.00    +0.000 A 
ATOM     16  C   UNL     1      30.822  22.375  25.983  0.00  0.00    +0.000 A 
ATOM     17  C   UNL     1      30.704  22.725  24.656  0.00  0.00    +0.000 A 
ATOM     18  C   UNL     1      29.432  22.996  24.143  0.00  0.00    +0.000 A 
ENDBRANCH  12  13
ENDBRANCH  11  12
ENDBRANCH   1  11
TORSDOF 5
ENDMDL
MODEL 5
REMARK VINA RESULT:      -5.3     28.952     30.446
REMARK  Name = 
REMARK  5 active torsions:
REMARK  status: ('A' for Active; 'I' for Inactive)
REMARK    1  A    between atoms: C_2  and  C_3
REMARK    2  A    between atoms: N_7  and  C_8
REMARK    3  A    between atoms: C_8  and  N_10
REMARK    4  A    between atoms: N_10  and  C_11
REMARK    5  A    between atoms: C_11  and  C_12
REMARK                            x       y       z     vdW  Elec       q    Type
REMARK                         _______ _______ _______ _____ _____    ______ ____
ROOT
ATOM      1  C   UNL     1      31.737  -6.955  32.606  0.00  0.00    +0.000 C 
ATOM      2  S   UNL     1      30.849  -8.204  33.133  0.00  0.00    +0.000 S 
ENDROOT
BRANCH   1   7
ATOM      3  C   UNL     1      33.464  -5.279  30.082  0.00  0.00    +0.000 C 
ATOM      4  C   UNL     1      34.664  -5.764  31.054  0.00  0.00    +0.000 C 
ATOM      5  C   UNL     1      34.869  -7.218  30.891  0.00  0.00    +0.000 C 
ATOM      6  C   UNL     1      33.818  -7.928  31.758  0.00  0.00    +0.000 C 
ATOM      7  N   UNL     1      32.609  -7.107  31.538  0.00  0.00    +0.000 N 
ATOM      8  C   UNL     1      32.519  -6.581  30.229  0.00  0.00    +0.000 C 
BRANCH   3  10
ATOM      9  O   UNL     1      33.142  -6.239  27.911  0.00  0.00    +0.000 OA
ATOM     10  C   UNL     1      34.200  -5.835  28.722  0.00  0.00    +0.000 C 
ENDBRANCH   3  10
ENDBRANCH   1   7
BRANCH   1  11
ATOM     11  N   UNL     1      31.570  -5.732  33.286  0.00  0.00    +0.000 NA
BRANCH  11  12
ATOM     12  C   UNL     1      32.616  -5.265  34.147  0.00  0.00    +0.000 C 
BRANCH  12  13
ATOM     13  C   UNL     1      32.733  -3.812  34.235  0.00  0.00    +0.000 A 
ATOM     14  C   UNL     1      33.559  -3.127  33.387  0.00  0.00    +0.000 A 
ATOM     15  C   UNL     1      33.716  -1.747  33.418  0.00  0.00    +0.000 A 
ATOM     16  C   UNL     1      32.989  -1.044  34.361  0.00  0.00    +0.000 A 
ATOM     17  C   UNL     1      32.143  -1.685  35.239  0.00  0.00    +0.000 A 
ATOM     18  C   UNL     1      32.024  -3.077  35.164  0.00  0.00    +0.000 A 
ENDBRANCH  12  13
ENDBRANCH  11  12
ENDBRANCH   1  11
TORSDOF 5
ENDMDL
MODEL 6
REMARK VINA RESULT:      -5.3      2.586      3.713
REMARK  Name = 
REMARK  5 active torsions:
REMARK  status: ('A' for Active; 'I' for Inactive)
REMARK    1  A    between atoms: C_2  and  C_3
REMARK    2  A    between atoms: N_7  and  C_8
REMARK    3  A    between atoms: C_8  and  N_10
REMARK    4  A    between atoms: N_10  and  C_11
REMARK    5  A    between atoms: C_11  and  C_12
REMARK                            x       y       z     vdW  Elec       q    Type
REMARK                         _______ _______ _______ _____ _____    ______ ____
ROOT
ATOM      1  C   UNL     1      27.284  23.381  27.003  0.00  0.00    +0.000 C 
ATOM      2  S   UNL     1      26.982  24.171  28.386  0.00  0.00    +0.000 S 
ENDROOT
BRANCH   1   7
ATOM      3  C   UNL     1      28.199  24.897  23.999  0.00  0.00    +0.000 C 
ATOM      4  C   UNL     1      27.743  23.423  23.513  0.00  0.00    +0.000 C 
ATOM      5  C   UNL     1      26.271  23.321  23.569  0.00  0.00    +0.000 C 
ATOM      6  C   UNL     1      25.889  23.010  25.025  0.00  0.00    +0.000 C 
ATOM      7  N   UNL     1      26.814  23.869  25.793  0.00  0.00    +0.000 N 
ATOM      8  C   UNL     1      27.093  25.101  25.158  0.00  0.00    +0.000 C 
BRANCH   3  10
ATOM      9  O   UNL     1      26.792  26.777  23.526  0.00  0.00    +0.000 OA
ATOM     10  C   UNL     1      27.301  25.666  22.857  0.00  0.00    +0.000 C 
ENDBRANCH   3  10
ENDBRANCH   1   7
BRANCH   1  11
ATOM     11  N   UNL     1      28.037  22.195  27.106  0.00  0.00    +0.000 NA
BRANCH  11  12
ATOM     12  C   UNL     1      29.401  22.271  27.544  0.00  0.00    +0.000 C 
BRANCH  12  13
ATOM     13  C   UNL     1      30.310  22.919  26.601  0.00  0.00    +0.000 A 
ATOM     14  C   UNL     1      30.921  24.099  26.922  0.00  0.00    +0.000 A 
ATOM     15  C   UNL     1      31.795  24.766  26.071  0.00  0.00    +0.000 A 
ATOM     16  C   UNL     1      32.049  24.189  24.841  0.00  0.00    +0.000 A 
ATOM     17  C   UNL     1      31.460  23.001  24.468  0.00  0.00    +0.000 A 
ATOM     18  C   UNL     1      30.588  22.374  25.364  0.00  0.00    +0.000 A 
ENDBRANCH  12  13
ENDBRANCH  11  12
ENDBRANCH   1  11
TORSDOF 5
ENDMDL
MODEL 7
REMARK VINA RESULT:      -5.3      2.375      3.113
REMARK  Name = 
REMARK  5 active torsions:
REMARK  status: ('A' for Active; 'I' for Inactive)
REMARK    1  A    between atoms: C_2  and  C_3
REMARK    2  A    between atoms: N_7  and  C_8
REMARK    3  A    between atoms: C_8  and  N_10
REMARK    4  A    between atoms: N_10  and  C_11
REMARK    5  A    between atoms: C_11  and  C_12
REMARK                            x       y       z     vdW  Elec       q    Type
REMARK                         _______ _______ _______ _____ _____    ______ ____
ROOT
ATOM      1  C   UNL     1      29.706  24.004  26.293  0.00  0.00    +0.000 C 
ATOM      2  S   UNL     1      30.516  24.854  27.412  0.00  0.00    +0.000 S 
ENDROOT
BRANCH   1   7
ATOM      3  C   UNL     1      28.582  23.404  23.047  0.00  0.00    +0.000 C 
ATOM      4  C   UNL     1      27.274  24.049  23.748  0.00  0.00    +0.000 C 
ATOM      5  C   UNL     1      27.477  25.501  23.924  0.00  0.00    +0.000 C 
ATOM      6  C   UNL     1      28.313  25.695  25.199  0.00  0.00    +0.000 C 
ATOM      7  N   UNL     1      29.300  24.600  25.108  0.00  0.00    +0.000 N 
ATOM      8  C   UNL     1      29.698  24.311  23.783  0.00  0.00    +0.000 C 
BRANCH   3  10
ATOM      9  O   UNL     1      29.708  24.189  21.084  0.00  0.00    +0.000 OA
ATOM     10  C   UNL     1      28.492  24.389  21.734  0.00  0.00    +0.000 C 
ENDBRANCH   3  10
ENDBRANCH   1   7
BRANCH   1  11
ATOM     11  N   UNL     1      29.446  22.653  26.596  0.00  0.00    +0.000 NA
BRANCH  11  12
ATOM     12  C   UNL     1      28.086  22.217  26.725  0.00  0.00    +0.000 C 
BRANCH  12  13
ATOM     13  C   UNL     1      27.350  22.829  27.827  0.00  0.00    +0.000 A 
ATOM     14  C   UNL     1      27.604  22.468  29.121  0.00  0.00    +0.000 A 
ATOM     15  C   UNL     1      26.940  23.011  30.214  0.00  0.00    +0.000 A 
ATOM     16  C   UNL     1      25.975  23.968  29.962  0.00  0.00    +0.000 A 
ATOM     17  C   UNL     1      25.680  24.369  28.677  0.00  0.00    +0.000 A 
ATOM     18  C   UNL     1      26.379  23.788  27.614  0.00  0.00    +0.000 A 
ENDBRANCH  12  13
ENDBRANCH  11  12
ENDBRANCH   1  11
TORSDOF 5
ENDMDL
MODEL 8
REMARK VINA RESULT:      -5.2     31.554     32.624
REMARK  Name = 
REMARK  5 active torsions:
REMARK  status: ('A' for Active; 'I' for Inactive)
REMARK    1  A    between atoms: C_2  and  C_3
REMARK    2  A    between atoms: N_7  and  C_8
REMARK    3  A    between atoms: C_8  and  N_10
REMARK    4  A    between atoms: N_10  and  C_11
REMARK    5  A    between atoms: C_11  and  C_12
REMARK                            x       y       z     vdW  Elec       q    Type
REMARK                         _______ _______ _______ _____ _____    ______ ____
ROOT
ATOM      1  C   UNL     1      21.125  -7.726  25.612  0.00  0.00    +0.000 C 
ATOM      2  S   UNL     1      21.540  -9.271  25.876  0.00  0.00    +0.000 S 
ENDROOT
BRANCH   1   7
ATOM      3  C   UNL     1      17.941  -8.562  26.762  0.00  0.00    +0.000 C 
ATOM      4  C   UNL     1      18.285  -7.244  27.635  0.00  0.00    +0.000 C 
ATOM      5  C   UNL     1      18.184  -6.047  26.776  0.00  0.00    +0.000 C 
ATOM      6  C   UNL     1      19.504  -5.931  25.997  0.00  0.00    +0.000 C 
ATOM      7  N   UNL     1      19.794  -7.336  25.642  0.00  0.00    +0.000 N 
ATOM      8  C   UNL     1      18.634  -8.099  25.378  0.00  0.00    +0.000 C 
BRANCH   3  10
ATOM      9  O   UNL     1      16.082  -8.853  25.278  0.00  0.00    +0.000 OA
ATOM     10  C   UNL     1      16.454  -8.014  26.326  0.00  0.00    +0.000 C 
ENDBRANCH   3  10
ENDBRANCH   1   7
BRANCH   1  11
ATOM     11  N   UNL     1      22.178  -6.826  25.355  0.00  0.00    +0.000 NA
BRANCH  11  12
ATOM     12  C   UNL     1      22.477  -6.473  23.998  0.00  0.00    +0.000 C 
BRANCH  12  13
ATOM     13  C   UNL     1      23.626  -7.170  23.425  0.00  0.00    +0.000 A 
ATOM     14  C   UNL     1      24.900  -6.773  23.719  0.00  0.00    +0.000 A 
ATOM     15  C   UNL     1      26.034  -7.392  23.207  0.00  0.00    +0.000 A 
ATOM     16  C   UNL     1      25.845  -8.467  22.359  0.00  0.00    +0.000 A 
ATOM     17  C   UNL     1      24.582  -8.909  22.031  0.00  0.00    +0.000 A 
ATOM     18  C   UNL     1      23.476  -8.248  22.574  0.00  0.00    +0.000 A 
ENDBRANCH  12  13
ENDBRANCH  11  12
ENDBRANCH   1  11
TORSDOF 5
ENDMDL
MODEL 9
REMARK VINA RESULT:      -5.2     31.536     32.611
REMARK  Name = 
REMARK  5 active torsions:
REMARK  status: ('A' for Active; 'I' for Inactive)
REMARK    1  A    between atoms: C_2  and  C_3
REMARK    2  A    between atoms: N_7  and  C_8
REMARK    3  A    between atoms: C_8  and  N_10
REMARK    4  A    between atoms: N_10  and  C_11
REMARK    5  A    between atoms: C_11  and  C_12
REMARK                            x       y       z     vdW  Elec       q    Type
REMARK                         _______ _______ _______ _____ _____    ______ ____
ROOT
ATOM      1  C   UNL     1      23.104  -8.287  24.130  0.00  0.00    +0.000 C 
ATOM      2  S   UNL     1      22.155  -8.936  22.987  0.00  0.00    +0.000 S 
ENDROOT
BRANCH   1   7
ATOM      3  C   UNL     1      25.751 -10.199  22.904  0.00  0.00    +0.000 C 
ATOM      4  C   UNL     1      25.844  -8.863  21.996  0.00  0.00    +0.000 C 
ATOM      5  C   UNL     1      26.388  -7.755  22.806  0.00  0.00    +0.000 C 
ATOM      6  C   UNL     1      25.225  -7.173  23.625  0.00  0.00    +0.000 C 
ATOM      7  N   UNL     1      24.485  -8.382  24.040  0.00  0.00    +0.000 N 
ATOM      8  C   UNL     1      25.322  -9.493  24.293  0.00  0.00    +0.000 C 
BRANCH   3  10
ATOM      9  O   UNL     1      27.383 -10.398  24.647  0.00  0.00    +0.000 OA
ATOM     10  C   UNL     1      27.353 -10.188  23.270  0.00  0.00    +0.000 C 
ENDBRANCH   3  10
ENDBRANCH   1   7
BRANCH   1  11
ATOM     11  N   UNL     1      22.452  -7.636  25.195  0.00  0.00    +0.000 NA
BRANCH  11  12
ATOM     12  C   UNL     1      21.563  -6.549  24.908  0.00  0.00    +0.000 C 
BRANCH  12  13
ATOM     13  C   UNL     1      20.337  -6.535  25.703  0.00  0.00    +0.000 A 
ATOM     14  C   UNL     1      19.711  -5.356  25.997  0.00  0.00    +0.000 A 
ATOM     15  C   UNL     1      18.544  -5.274  26.748  0.00  0.00    +0.000 A 
ATOM     16  C   UNL     1      18.001  -6.458  27.212  0.00  0.00    +0.000 A 
ATOM     17  C   UNL     1      18.591  -7.673  26.943  0.00  0.00    +0.000 A 
ATOM     18  C   UNL     1      19.765  -7.697  26.183  0.00  0.00    +0.000 A 
ENDBRANCH  12  13
ENDBRANCH  11  12
ENDBRANCH   1  11
TORSDOF 5
ENDMDL
MODEL 10
REMARK VINA RESULT:      -5.2      2.676      3.566
REMARK  Name = 
REMARK  5 active torsions:
REMARK  status: ('A' for Active; 'I' for Inactive)
REMARK    1  A    between atoms: C_2  and  C_3
REMARK    2  A    between atoms: N_7  and  C_8
REMARK    3  A    between atoms: C_8  and  N_10
REMARK    4  A    between atoms: N_10  and  C_11
REMARK    5  A    between atoms: C_11  and  C_12
REMARK                            x       y       z     vdW  Elec       q    Type
REMARK                         _______ _______ _______ _____ _____    ______ ____
ROOT
ATOM      1  C   UNL     1      26.750  24.344  24.032  0.00  0.00    +0.000 C 
ATOM      2  S   UNL     1      25.706  25.214  24.916  0.00  0.00    +0.000 S 
ENDROOT
BRANCH   1   7
ATOM      3  C   UNL     1      28.841  26.862  22.829  0.00  0.00    +0.000 C 
ATOM      4  C   UNL     1      29.730  25.533  22.582  0.00  0.00    +0.000 C 
ATOM      5  C   UNL     1      29.179  24.780  21.437  0.00  0.00    +0.000 C 
ATOM      6  C   UNL     1      27.997  23.949  21.962  0.00  0.00    +0.000 C 
ATOM      7  N   UNL     1      27.334  24.883  22.895  0.00  0.00    +0.000 N 
ATOM      8  C   UNL     1      27.396  26.232  22.476  0.00  0.00    +0.000 C 
BRANCH   3  10
ATOM      9  O   UNL     1      28.026  28.320  21.111  0.00  0.00    +0.000 OA
ATOM     10  C   UNL     1      29.082  27.433  21.306  0.00  0.00    +0.000 C 
ENDBRANCH   3  10
ENDBRANCH   1   7
BRANCH   1  11
ATOM     11  N   UNL     1      27.020  23.037  24.481  0.00  0.00    +0.000 NA
BRANCH  11  12
ATOM     12  C   UNL     1      27.827  22.856  25.653  0.00  0.00    +0.000 C 
BRANCH  12  13
ATOM     13  C   UNL     1      29.227  23.241  25.496  0.00  0.00    +0.000 A 
ATOM     14  C   UNL     1      29.724  24.338  26.143  0.00  0.00    +0.000 A 
ATOM     15  C   UNL     1      31.045  24.758  26.037  0.00  0.00    +0.000 A 
ATOM     16  C   UNL     1      31.886  24.014  25.231  0.00  0.00    +0.000 A 
ATOM     17  C   UNL     1      31.437  22.900  24.557  0.00  0.00    +0.000 A 
ATOM     18  C   UNL     1      30.097  22.523  24.700  0.00  0.00    +0.000 A 
ENDBRANCH  12  13
ENDBRANCH  11  12
ENDBRANCH   1  11
TORSDOF 5
ENDMDL
