MODEL 1
REMARK VINA RESULT:      -7.3      0.000      0.000
REMARK  Name = 
REMARK  8 active torsions:
REMARK  status: ('A' for Active; 'I' for Inactive)
REMARK    1  A    between atoms: O_2  and  C_3
REMARK    2  A    between atoms: C_3  and  C_4
REMARK    3  A    between atoms: C_4  and  O_6
REMARK    4  A    between atoms: O_6  and  C_7
REMARK    5  A    between atoms: C_7  and  C_9
REMARK    6  A    between atoms: N_12  and  C_13
REMARK    7  A    between atoms: C_13  and  C_14
REMARK    8  A    between atoms: C_14  and  C_15
REMARK                            x       y       z     vdW  Elec       q    Type
REMARK                         _______ _______ _______ _____ _____    ______ ____
ROOT
ATOM      1  C   UNL     1      36.433  -0.620  16.010  0.00  0.00    +0.000 A 
ATOM      2  C   UNL     1      36.036   0.673  16.108  0.00  0.00    +0.000 A 
ATOM      3  N   UNL     1      34.759   1.111  16.570  0.00  0.00    +0.000 NA
ATOM      4  N   UNL     1      37.075   1.456  15.687  0.00  0.00    +0.000 N 
ATOM      5  C   UNL     1      38.110   0.680  15.329  0.00  0.00    +0.000 A 
ATOM      6  N   UNL     1      39.330   0.975  14.860  0.00  0.00    +0.000 NA
ATOM      7  C   UNL     1      40.213  -0.025  14.567  0.00  0.00    +0.000 A 
ATOM      8  C   UNL     1      41.473   0.227  14.085  0.00  0.00    +0.000 A 
ATOM      9  C   UNL     1      42.367  -0.805  13.791  0.00  0.00    +0.000 A 
ATOM     10  C   UNL     1      41.995  -2.107  13.981  0.00  0.00    +0.000 A 
ATOM     11  C   UNL     1      40.743  -2.374  14.461  0.00  0.00    +0.000 A 
ATOM     12  C   UNL     1      39.852  -1.343  14.755  0.00  0.00    +0.000 A 
ATOM     13  N   UNL     1      38.621  -1.603  15.227  0.00  0.00    +0.000 NA
ATOM     14  C   UNL     1      37.724  -0.637  15.526  0.00  0.00    +0.000 A 
ENDROOT
BRANCH   1  15
ATOM     15  C   UNL     1      35.643  -1.795  16.353  0.00  0.00    +0.000 C 
ATOM     16  O   UNL     1      35.449  -2.081  17.584  0.00  0.00    +0.000 OA
BRANCH  15  17
ATOM     17  O   UNL     1      35.099  -2.607  15.384  0.00  0.00    +0.000 OA
BRANCH  17  18
ATOM     18  C   UNL     1      34.917  -4.069  15.876  0.00  0.00    +0.000 C 
ATOM     19  C   UNL     1      34.196  -4.538  14.436  0.00  0.00    +0.000 C 
BRANCH  18  20
ATOM     20  C   UNL     1      36.431  -4.524  15.344  0.00  0.00    +0.000 C 
BRANCH  20  22
ATOM     21  C   UNL     1      38.034  -4.709  16.953  0.00  0.00    +0.000 C 
ATOM     22  O   UNL     1      36.848  -5.257  16.474  0.00  0.00    +0.000 OA
ENDBRANCH  20  22
ENDBRANCH  18  20
ENDBRANCH  17  18
ENDBRANCH  15  17
ENDBRANCH   1  15
BRANCH   4  23
ATOM     23  C   UNL     1      36.955   2.893  15.675  0.00  0.00    +0.000 C 
BRANCH  23  24
ATOM     24  C   UNL     1      37.066   3.497  17.050  0.00  0.00    +0.000 C 
BRANCH  24  25
ATOM     25  C   UNL     1      38.268   4.393  17.032  0.00  0.00    +0.000 A 
ATOM     26  C   UNL     1      38.922   4.706  15.856  0.00  0.00    +0.000 A 
ATOM     27  C   UNL     1      40.028   5.531  15.837  0.00  0.00    +0.000 A 
ATOM     28  C   UNL     1      40.525   6.073  16.993  0.00  0.00    +0.000 A 
ATOM     29  C   UNL     1      39.884   5.770  18.177  0.00  0.00    +0.000 A 
ATOM     30  C   UNL     1      38.778   4.945  18.189  0.00  0.00    +0.000 A 
ENDBRANCH  24  25
ENDBRANCH  23  24
ENDBRANCH   4  23
TORSDOF 8
ENDMDL
MODEL 2
REMARK VINA RESULT:      -7.1      2.409      4.877
REMARK  Name = 
REMARK  8 active torsions:
REMARK  status: ('A' for Active; 'I' for Inactive)
REMARK    1  A    between atoms: O_2  and  C_3
REMARK    2  A    between atoms: C_3  and  C_4
REMARK    3  A    between atoms: C_4  and  O_6
REMARK    4  A    between atoms: O_6  and  C_7
REMARK    5  A    between atoms: C_7  and  C_9
REMARK    6  A    between atoms: N_12  and  C_13
REMARK    7  A    between atoms: C_13  and  C_14
REMARK    8  A    between atoms: C_14  and  C_15
REMARK                            x       y       z     vdW  Elec       q    Type
REMARK                         _______ _______ _______ _____ _____    ______ ____
ROOT
ATOM      1  C   UNL     1      39.242   1.672  13.998  0.00  0.00    +0.000 A 
ATOM      2  C   UNL     1      39.326   2.986  14.321  0.00  0.00    +0.000 A 
ATOM      3  N   UNL     1      40.279   3.907  13.790  0.00  0.00    +0.000 NA
ATOM      4  N   UNL     1      38.343   3.250  15.234  0.00  0.00    +0.000 N 
ATOM      5  C   UNL     1      37.648   2.129  15.487  0.00  0.00    +0.000 A 
ATOM      6  N   UNL     1      36.608   1.884  16.295  0.00  0.00    +0.000 NA
ATOM      7  C   UNL     1      36.077   0.628  16.368  0.00  0.00    +0.000 A 
ATOM      8  C   UNL     1      35.012   0.328  17.180  0.00  0.00    +0.000 A 
ATOM      9  C   UNL     1      34.478  -0.961  17.245  0.00  0.00    +0.000 A 
ATOM     10  C   UNL     1      35.017  -1.964  16.487  0.00  0.00    +0.000 A 
ATOM     11  C   UNL     1      36.079  -1.680  15.673  0.00  0.00    +0.000 A 
ATOM     12  C   UNL     1      36.611  -0.393  15.609  0.00  0.00    +0.000 A 
ATOM     13  N   UNL     1      37.653  -0.112  14.809  0.00  0.00    +0.000 NA
ATOM     14  C   UNL     1      38.202   1.120  14.715  0.00  0.00    +0.000 A 
ENDROOT
BRANCH   1  15
ATOM     15  C   UNL     1      40.096   0.956  13.059  0.00  0.00    +0.000 C 
ATOM     16  O   UNL     1      39.920   1.121  11.803  0.00  0.00    +0.000 OA
BRANCH  15  17
ATOM     17  O   UNL     1      41.089   0.106  13.489  0.00  0.00    +0.000 OA
BRANCH  17  18
ATOM     18  C   UNL     1      40.735  -1.385  13.241  0.00  0.00    +0.000 C 
ATOM     19  C   UNL     1      42.350  -1.822  13.129  0.00  0.00    +0.000 C 
BRANCH  18  20
ATOM     20  C   UNL     1      40.686  -1.731  14.873  0.00  0.00    +0.000 C 
BRANCH  20  22
ATOM     21  C   UNL     1      39.476  -3.176  16.154  0.00  0.00    +0.000 C 
ATOM     22  O   UNL     1      39.709  -2.747  14.851  0.00  0.00    +0.000 OA
ENDBRANCH  20  22
ENDBRANCH  18  20
ENDBRANCH  17  18
ENDBRANCH  15  17
ENDBRANCH   1  15
BRANCH   4  23
ATOM     23  C   UNL     1      38.177   4.576  15.774  0.00  0.00    +0.000 C 
BRANCH  23  24
ATOM     24  C   UNL     1      38.104   4.587  17.278  0.00  0.00    +0.000 C 
BRANCH  24  25
ATOM     25  C   UNL     1      39.303   5.345  17.763  0.00  0.00    +0.000 A 
ATOM     26  C   UNL     1      39.443   5.712  19.088  0.00  0.00    +0.000 A 
ATOM     27  C   UNL     1      40.546   6.409  19.537  0.00  0.00    +0.000 A 
ATOM     28  C   UNL     1      41.552   6.768  18.678  0.00  0.00    +0.000 A 
ATOM     29  C   UNL     1      41.428   6.410  17.352  0.00  0.00    +0.000 A 
ATOM     30  C   UNL     1      40.322   5.712  16.909  0.00  0.00    +0.000 A 
ENDBRANCH  24  25
ENDBRANCH  23  24
ENDBRANCH   4  23
TORSDOF 8
ENDMDL
MODEL 3
REMARK VINA RESULT:      -7.0      2.446      5.643
REMARK  Name = 
REMARK  8 active torsions:
REMARK  status: ('A' for Active; 'I' for Inactive)
REMARK    1  A    between atoms: O_2  and  C_3
REMARK    2  A    between atoms: C_3  and  C_4
REMARK    3  A    between atoms: C_4  and  O_6
REMARK    4  A    between atoms: O_6  and  C_7
REMARK    5  A    between atoms: C_7  and  C_9
REMARK    6  A    between atoms: N_12  and  C_13
REMARK    7  A    between atoms: C_13  and  C_14
REMARK    8  A    between atoms: C_14  and  C_15
REMARK                            x       y       z     vdW  Elec       q    Type
REMARK                         _______ _______ _______ _____ _____    ______ ____
ROOT
ATOM      1  C   UNL     1      36.578   2.224  15.247  0.00  0.00    +0.000 A 
ATOM      2  C   UNL     1      36.967   1.966  13.975  0.00  0.00    +0.000 A 
ATOM      3  N   UNL     1      36.308   1.076  13.074  0.00  0.00    +0.000 NA
ATOM      4  N   UNL     1      38.088   2.709  13.728  0.00  0.00    +0.000 N 
ATOM      5  C   UNL     1      38.405   3.424  14.819  0.00  0.00    +0.000 A 
ATOM      6  N   UNL     1      39.401   4.286  15.065  0.00  0.00    +0.000 NA
ATOM      7  C   UNL     1      39.499   4.891  16.286  0.00  0.00    +0.000 A 
ATOM      8  C   UNL     1      40.499   5.781  16.586  0.00  0.00    +0.000 A 
ATOM      9  C   UNL     1      40.588   6.392  17.838  0.00  0.00    +0.000 A 
ATOM     10  C   UNL     1      39.662   6.110  18.804  0.00  0.00    +0.000 A 
ATOM     11  C   UNL     1      38.659   5.225  18.520  0.00  0.00    +0.000 A 
ATOM     12  C   UNL     1      38.571   4.615  17.270  0.00  0.00    +0.000 A 
ATOM     13  N   UNL     1      37.587   3.746  16.988  0.00  0.00    +0.000 NA
ATOM     14  C   UNL     1      37.462   3.131  15.791  0.00  0.00    +0.000 A 
ENDROOT
BRANCH   1  15
ATOM     15  C   UNL     1      35.427   1.650  15.932  0.00  0.00    +0.000 C 
ATOM     16  O   UNL     1      34.479   2.418  16.315  0.00  0.00    +0.000 OA
BRANCH  15  17
ATOM     17  O   UNL     1      35.334   0.299  16.179  0.00  0.00    +0.000 OA
BRANCH  17  18
ATOM     18  C   UNL     1      35.426  -0.030  17.694  0.00  0.00    +0.000 C 
ATOM     19  C   UNL     1      34.437  -1.375  17.534  0.00  0.00    +0.000 C 
BRANCH  18  20
ATOM     20  C   UNL     1      36.810  -0.941  17.497  0.00  0.00    +0.000 C 
BRANCH  20  22
ATOM     21  C   UNL     1      37.725  -1.970  19.313  0.00  0.00    +0.000 C 
ATOM     22  O   UNL     1      37.387  -0.736  18.767  0.00  0.00    +0.000 OA
ENDBRANCH  20  22
ENDBRANCH  18  20
ENDBRANCH  17  18
ENDBRANCH  15  17
ENDBRANCH   1  15
BRANCH   4  23
ATOM     23  C   UNL     1      38.743   2.648  12.445  0.00  0.00    +0.000 C 
BRANCH  23  24
ATOM     24  C   UNL     1      40.157   2.139  12.538  0.00  0.00    +0.000 C 
BRANCH  24  25
ATOM     25  C   UNL     1      40.072   0.701  12.955  0.00  0.00    +0.000 A 
ATOM     26  C   UNL     1      39.546  -0.267  12.120  0.00  0.00    +0.000 A 
ATOM     27  C   UNL     1      39.467  -1.590  12.501  0.00  0.00    +0.000 A 
ATOM     28  C   UNL     1      39.909  -1.998  13.733  0.00  0.00    +0.000 A 
ATOM     29  C   UNL     1      40.436  -1.044  14.579  0.00  0.00    +0.000 A 
ATOM     30  C   UNL     1      40.513   0.278  14.191  0.00  0.00    +0.000 A 
ENDBRANCH  24  25
ENDBRANCH  23  24
ENDBRANCH   4  23
TORSDOF 8
ENDMDL
MODEL 4
REMARK VINA RESULT:      -6.7      2.350      7.553
REMARK  Name = 
REMARK  8 active torsions:
REMARK  status: ('A' for Active; 'I' for Inactive)
REMARK    1  A    between atoms: O_2  and  C_3
REMARK    2  A    between atoms: C_3  and  C_4
REMARK    3  A    between atoms: C_4  and  O_6
REMARK    4  A    between atoms: O_6  and  C_7
REMARK    5  A    between atoms: C_7  and  C_9
REMARK    6  A    between atoms: N_12  and  C_13
REMARK    7  A    between atoms: C_13  and  C_14
REMARK    8  A    between atoms: C_14  and  C_15
REMARK                            x       y       z     vdW  Elec       q    Type
REMARK                         _______ _______ _______ _____ _____    ______ ____
ROOT
ATOM      1  C   UNL     1      36.127  -0.696  16.750  0.00  0.00    +0.000 A 
ATOM      2  C   UNL     1      35.349  -1.806  16.782  0.00  0.00    +0.000 A 
ATOM      3  N   UNL     1      34.075  -1.904  17.420  0.00  0.00    +0.000 NA
ATOM      4  N   UNL     1      36.008  -2.791  16.100  0.00  0.00    +0.000 N 
ATOM      5  C   UNL     1      37.179  -2.319  15.643  0.00  0.00    +0.000 A 
ATOM      6  N   UNL     1      38.158  -2.893  14.931  0.00  0.00    +0.000 NA
ATOM      7  C   UNL     1      39.269  -2.175  14.591  0.00  0.00    +0.000 A 
ATOM      8  C   UNL     1      40.298  -2.717  13.863  0.00  0.00    +0.000 A 
ATOM      9  C   UNL     1      41.429  -1.972  13.521  0.00  0.00    +0.000 A 
ATOM     10  C   UNL     1      41.531  -0.666  13.912  0.00  0.00    +0.000 A 
ATOM     11  C   UNL     1      40.514  -0.111  14.638  0.00  0.00    +0.000 A 
ATOM     12  C   UNL     1      39.385  -0.856  14.978  0.00  0.00    +0.000 A 
ATOM     13  N   UNL     1      38.384  -0.313  15.691  0.00  0.00    +0.000 NA
ATOM     14  C   UNL     1      37.272  -0.996  16.045  0.00  0.00    +0.000 A 
ENDROOT
BRANCH   1  15
ATOM     15  C   UNL     1      35.817   0.594  17.352  0.00  0.00    +0.000 C 
ATOM     16  O   UNL     1      36.404   0.936  18.436  0.00  0.00    +0.000 OA
BRANCH  15  17
ATOM     17  O   UNL     1      34.905   1.455  16.785  0.00  0.00    +0.000 OA
BRANCH  17  18
ATOM     18  C   UNL     1      35.345   1.932  15.375  0.00  0.00    +0.000 C 
ATOM     19  C   UNL     1      34.224   3.179  15.370  0.00  0.00    +0.000 C 
BRANCH  18  20
ATOM     20  C   UNL     1      36.541   2.920  15.990  0.00  0.00    +0.000 C 
BRANCH  20  22
ATOM     21  C   UNL     1      38.557   3.630  15.201  0.00  0.00    +0.000 C 
ATOM     22  O   UNL     1      37.513   2.735  14.986  0.00  0.00    +0.000 OA
ENDBRANCH  20  22
ENDBRANCH  18  20
ENDBRANCH  17  18
ENDBRANCH  15  17
ENDBRANCH   1  15
BRANCH   4  23
ATOM     23  C   UNL     1      35.427  -4.103  15.959  0.00  0.00    +0.000 C 
BRANCH  23  24
ATOM     24  C   UNL     1      34.522  -4.214  14.760  0.00  0.00    +0.000 C 
BRANCH  24  25
ATOM     25  C   UNL     1      34.188  -5.667  14.603  0.00  0.00    +0.000 A 
ATOM     26  C   UNL     1      34.050  -6.502  15.695  0.00  0.00    +0.000 A 
ATOM     27  C   UNL     1      33.743  -7.839  15.554  0.00  0.00    +0.000 A 
ATOM     28  C   UNL     1      33.562  -8.395  14.314  0.00  0.00    +0.000 A 
ATOM     29  C   UNL     1      33.697  -7.575  13.213  0.00  0.00    +0.000 A 
ATOM     30  C   UNL     1      34.004  -6.237  13.361  0.00  0.00    +0.000 A 
ENDBRANCH  24  25
ENDBRANCH  23  24
ENDBRANCH   4  23
TORSDOF 8
ENDMDL
MODEL 5
REMARK VINA RESULT:      -6.7      5.399      9.364
REMARK  Name = 
REMARK  8 active torsions:
REMARK  status: ('A' for Active; 'I' for Inactive)
REMARK    1  A    between atoms: O_2  and  C_3
REMARK    2  A    between atoms: C_3  and  C_4
REMARK    3  A    between atoms: C_4  and  O_6
REMARK    4  A    between atoms: O_6  and  C_7
REMARK    5  A    between atoms: C_7  and  C_9
REMARK    6  A    between atoms: N_12  and  C_13
REMARK    7  A    between atoms: C_13  and  C_14
REMARK    8  A    between atoms: C_14  and  C_15
REMARK                            x       y       z     vdW  Elec       q    Type
REMARK                         _______ _______ _______ _____ _____    ______ ____
ROOT
ATOM      1  C   UNL     1      36.578   7.253  14.180  0.00  0.00    +0.000 A 
ATOM      2  C   UNL     1      36.195   6.067  13.648  0.00  0.00    +0.000 A 
ATOM      3  N   UNL     1      35.446   5.905  12.444  0.00  0.00    +0.000 NA
ATOM      4  N   UNL     1      36.656   5.078  14.472  0.00  0.00    +0.000 N 
ATOM      5  C   UNL     1      37.318   5.623  15.506  0.00  0.00    +0.000 A 
ATOM      6  N   UNL     1      37.941   5.075  16.558  0.00  0.00    +0.000 NA
ATOM      7  C   UNL     1      38.548   5.872  17.487  0.00  0.00    +0.000 A 
ATOM      8  C   UNL     1      39.199   5.359  18.580  0.00  0.00    +0.000 A 
ATOM      9  C   UNL     1      39.816   6.184  19.522  0.00  0.00    +0.000 A 
ATOM     10  C   UNL     1      39.784   7.543  19.367  0.00  0.00    +0.000 A 
ATOM     11  C   UNL     1      39.140   8.069  18.282  0.00  0.00    +0.000 A 
ATOM     12  C   UNL     1      38.523   7.244  17.342  0.00  0.00    +0.000 A 
ATOM     13  N   UNL     1      37.890   7.759  16.275  0.00  0.00    +0.000 NA
ATOM     14  C   UNL     1      37.279   6.998  15.339  0.00  0.00    +0.000 A 
ENDROOT
BRANCH   1  15
ATOM     15  C   UNL     1      36.302   8.575  13.632  0.00  0.00    +0.000 C 
ATOM     16  O   UNL     1      37.227   9.199  13.006  0.00  0.00    +0.000 OA
BRANCH  15  17
ATOM     17  O   UNL     1      35.070   9.172  13.772  0.00  0.00    +0.000 OA
BRANCH  17  18
ATOM     18  C   UNL     1      35.010  10.118  15.001  0.00  0.00    +0.000 C 
ATOM     19  C   UNL     1      33.923  11.147  14.246  0.00  0.00    +0.000 C 
BRANCH  18  20
ATOM     20  C   UNL     1      33.784   9.242  15.719  0.00  0.00    +0.000 C 
BRANCH  20  22
ATOM     21  C   UNL     1      32.913   9.490  17.811  0.00  0.00    +0.000 C 
ATOM     22  O   UNL     1      34.091   9.506  17.070  0.00  0.00    +0.000 OA
ENDBRANCH  20  22
ENDBRANCH  18  20
ENDBRANCH  17  18
ENDBRANCH  15  17
ENDBRANCH   1  15
BRANCH   4  23
ATOM     23  C   UNL     1      36.405   3.691  14.169  0.00  0.00    +0.000 C 
BRANCH  23  24
ATOM     24  C   UNL     1      35.084   3.208  14.707  0.00  0.00    +0.000 C 
BRANCH  24  25
ATOM     25  C   UNL     1      35.341   1.882  15.359  0.00  0.00    +0.000 A 
ATOM     26  C   UNL     1      36.072   0.894  14.728  0.00  0.00    +0.000 A 
ATOM     27  C   UNL     1      36.311  -0.327  15.325  0.00  0.00    +0.000 A 
ATOM     28  C   UNL     1      35.827  -0.608  16.576  0.00  0.00    +0.000 A 
ATOM     29  C   UNL     1      35.095   0.369  17.220  0.00  0.00    +0.000 A 
ATOM     30  C   UNL     1      34.860   1.588  16.617  0.00  0.00    +0.000 A 
ENDBRANCH  24  25
ENDBRANCH  23  24
ENDBRANCH   4  23
TORSDOF 8
ENDMDL
MODEL 6
REMARK VINA RESULT:      -6.6      3.752      6.350
REMARK  Name = 
REMARK  8 active torsions:
REMARK  status: ('A' for Active; 'I' for Inactive)
REMARK    1  A    between atoms: O_2  and  C_3
REMARK    2  A    between atoms: C_3  and  C_4
REMARK    3  A    between atoms: C_4  and  O_6
REMARK    4  A    between atoms: O_6  and  C_7
REMARK    5  A    between atoms: C_7  and  C_9
REMARK    6  A    between atoms: N_12  and  C_13
REMARK    7  A    between atoms: C_13  and  C_14
REMARK    8  A    between atoms: C_14  and  C_15
REMARK                            x       y       z     vdW  Elec       q    Type
REMARK                         _______ _______ _______ _____ _____    ______ ____
ROOT
ATOM      1  C   UNL     1      38.175   3.142  14.560  0.00  0.00    +0.000 A 
ATOM      2  C   UNL     1      37.613   3.668  13.444  0.00  0.00    +0.000 A 
ATOM      3  N   UNL     1      37.317   2.946  12.249  0.00  0.00    +0.000 NA
ATOM      4  N   UNL     1      37.390   4.996  13.682  0.00  0.00    +0.000 N 
ATOM      5  C   UNL     1      37.801   5.308  14.921  0.00  0.00    +0.000 A 
ATOM      6  N   UNL     1      37.793   6.462  15.602  0.00  0.00    +0.000 NA
ATOM      7  C   UNL     1      38.281   6.509  16.877  0.00  0.00    +0.000 A 
ATOM      8  C   UNL     1      38.293   7.666  17.615  0.00  0.00    +0.000 A 
ATOM      9  C   UNL     1      38.795   7.701  18.918  0.00  0.00    +0.000 A 
ATOM     10  C   UNL     1      39.290   6.562  19.491  0.00  0.00    +0.000 A 
ATOM     11  C   UNL     1      39.285   5.402  18.768  0.00  0.00    +0.000 A 
ATOM     12  C   UNL     1      38.784   5.368  17.468  0.00  0.00    +0.000 A 
ATOM     13  N   UNL     1      38.776   4.229  16.756  0.00  0.00    +0.000 NA
ATOM     14  C   UNL     1      38.301   4.149  15.492  0.00  0.00    +0.000 A 
ENDROOT
BRANCH   1  15
ATOM     15  C   UNL     1      38.581   1.755  14.752  0.00  0.00    +0.000 C 
ATOM     16  O   UNL     1      39.640   1.328  14.177  0.00  0.00    +0.000 OA
BRANCH  15  17
ATOM     17  O   UNL     1      37.851   0.892  15.536  0.00  0.00    +0.000 OA
BRANCH  17  18
ATOM     18  C   UNL     1      36.476   0.541  14.904  0.00  0.00    +0.000 C 
ATOM     19  C   UNL     1      36.658  -1.091  15.242  0.00  0.00    +0.000 C 
BRANCH  18  20
ATOM     20  C   UNL     1      35.657   0.814  16.331  0.00  0.00    +0.000 C 
BRANCH  20  22
ATOM     21  C   UNL     1      36.070   0.305  18.513  0.00  0.00    +0.000 C 
ATOM     22  O   UNL     1      36.614   0.305  17.233  0.00  0.00    +0.000 OA
ENDBRANCH  20  22
ENDBRANCH  18  20
ENDBRANCH  17  18
ENDBRANCH  15  17
ENDBRANCH   1  15
BRANCH   4  23
ATOM     23  C   UNL     1      36.795   5.835  12.671  0.00  0.00    +0.000 C 
BRANCH  23  24
ATOM     24  C   UNL     1      35.293   5.879  12.763  0.00  0.00    +0.000 C 
BRANCH  24  25
ATOM     25  C   UNL     1      34.941   7.144  13.487  0.00  0.00    +0.000 A 
ATOM     26  C   UNL     1      35.666   8.306  13.310  0.00  0.00    +0.000 A 
ATOM     27  C   UNL     1      35.345   9.472  13.974  0.00  0.00    +0.000 A 
ATOM     28  C   UNL     1      34.285   9.521  14.843  0.00  0.00    +0.000 A 
ATOM     29  C   UNL     1      33.551   8.368  15.031  0.00  0.00    +0.000 A 
ATOM     30  C   UNL     1      33.878   7.206  14.363  0.00  0.00    +0.000 A 
ENDBRANCH  24  25
ENDBRANCH  23  24
ENDBRANCH   4  23
TORSDOF 8
ENDMDL
MODEL 7
REMARK VINA RESULT:      -6.6      2.203      2.874
REMARK  Name = 
REMARK  8 active torsions:
REMARK  status: ('A' for Active; 'I' for Inactive)
REMARK    1  A    between atoms: O_2  and  C_3
REMARK    2  A    between atoms: C_3  and  C_4
REMARK    3  A    between atoms: C_4  and  O_6
REMARK    4  A    between atoms: O_6  and  C_7
REMARK    5  A    between atoms: C_7  and  C_9
REMARK    6  A    between atoms: N_12  and  C_13
REMARK    7  A    between atoms: C_13  and  C_14
REMARK    8  A    between atoms: C_14  and  C_15
REMARK                            x       y       z     vdW  Elec       q    Type
REMARK                         _______ _______ _______ _____ _____    ______ ____
ROOT
ATOM      1  C   UNL     1      36.381   0.095  15.806  0.00  0.00    +0.000 A 
ATOM      2  C   UNL     1      36.035   1.397  15.654  0.00  0.00    +0.000 A 
ATOM      3  N   UNL     1      34.758   1.954  15.964  0.00  0.00    +0.000 NA
ATOM      4  N   UNL     1      37.125   2.057  15.157  0.00  0.00    +0.000 N 
ATOM      5  C   UNL     1      38.141   1.195  14.996  0.00  0.00    +0.000 A 
ATOM      6  N   UNL     1      39.393   1.361  14.548  0.00  0.00    +0.000 NA
ATOM      7  C   UNL     1      40.245   0.295  14.482  0.00  0.00    +0.000 A 
ATOM      8  C   UNL     1      41.535   0.414  14.031  0.00  0.00    +0.000 A 
ATOM      9  C   UNL     1      42.397  -0.683  13.970  0.00  0.00    +0.000 A 
ATOM     10  C   UNL     1      41.962  -1.918  14.367  0.00  0.00    +0.000 A 
ATOM     11  C   UNL     1      40.678  -2.052  14.819  0.00  0.00    +0.000 A 
ATOM     12  C   UNL     1      39.819  -0.956  14.880  0.00  0.00    +0.000 A 
ATOM     13  N   UNL     1      38.558  -1.086  15.325  0.00  0.00    +0.000 NA
ATOM     14  C   UNL     1      37.690  -0.052  15.401  0.00  0.00    +0.000 A 
ENDROOT
BRANCH   1  15
ATOM     15  C   UNL     1      35.526  -0.973  16.308  0.00  0.00    +0.000 C 
ATOM     16  O   UNL     1      35.094  -0.916  17.510  0.00  0.00    +0.000 OA
BRANCH  15  17
ATOM     17  O   UNL     1      35.171  -2.045  15.520  0.00  0.00    +0.000 OA
BRANCH  17  18
ATOM     18  C   UNL     1      35.253  -3.392  16.288  0.00  0.00    +0.000 C 
ATOM     19  C   UNL     1      34.007  -4.062  15.387  0.00  0.00    +0.000 C 
BRANCH  18  20
ATOM     20  C   UNL     1      36.415  -4.003  15.258  0.00  0.00    +0.000 C 
BRANCH  20  22
ATOM     21  C   UNL     1      37.874  -4.201  16.997  0.00  0.00    +0.000 C 
ATOM     22  O   UNL     1      37.035  -4.909  16.143  0.00  0.00    +0.000 OA
ENDBRANCH  20  22
ENDBRANCH  18  20
ENDBRANCH  17  18
ENDBRANCH  15  17
ENDBRANCH   1  15
BRANCH   4  23
ATOM     23  C   UNL     1      37.067   3.472  14.886  0.00  0.00    +0.000 C 
BRANCH  23  24
ATOM     24  C   UNL     1      37.033   3.781  13.413  0.00  0.00    +0.000 C 
BRANCH  24  25
ATOM     25  C   UNL     1      36.025   4.875  13.224  0.00  0.00    +0.000 A 
ATOM     26  C   UNL     1      35.942   5.590  12.046  0.00  0.00    +0.000 A 
ATOM     27  C   UNL     1      35.015   6.597  11.869  0.00  0.00    +0.000 A 
ATOM     28  C   UNL     1      34.135   6.929  12.866  0.00  0.00    +0.000 A 
ATOM     29  C   UNL     1      34.204   6.224  14.050  0.00  0.00    +0.000 A 
ATOM     30  C   UNL     1      35.134   5.218  14.220  0.00  0.00    +0.000 A 
ENDBRANCH  24  25
ENDBRANCH  23  24
ENDBRANCH   4  23
TORSDOF 8
ENDMDL
MODEL 8
REMARK VINA RESULT:      -6.6      3.115      5.762
REMARK  Name = 
REMARK  8 active torsions:
REMARK  status: ('A' for Active; 'I' for Inactive)
REMARK    1  A    between atoms: O_2  and  C_3
REMARK    2  A    between atoms: C_3  and  C_4
REMARK    3  A    between atoms: C_4  and  O_6
REMARK    4  A    between atoms: O_6  and  C_7
REMARK    5  A    between atoms: C_7  and  C_9
REMARK    6  A    between atoms: N_12  and  C_13
REMARK    7  A    between atoms: C_13  and  C_14
REMARK    8  A    between atoms: C_14  and  C_15
REMARK                            x       y       z     vdW  Elec       q    Type
REMARK                         _______ _______ _______ _____ _____    ______ ____
ROOT
ATOM      1  C   UNL     1      38.182   2.511  13.993  0.00  0.00    +0.000 A 
ATOM      2  C   UNL     1      38.401   3.717  14.573  0.00  0.00    +0.000 A 
ATOM      3  N   UNL     1      39.117   4.800  13.979  0.00  0.00    +0.000 NA
ATOM      4  N   UNL     1      37.816   3.692  15.808  0.00  0.00    +0.000 N 
ATOM      5  C   UNL     1      37.237   2.498  16.011  0.00  0.00    +0.000 A 
ATOM      6  N   UNL     1      36.551   2.001  17.049  0.00  0.00    +0.000 NA
ATOM      7  C   UNL     1      36.059   0.728  16.999  0.00  0.00    +0.000 A 
ATOM      8  C   UNL     1      35.350   0.175  18.036  0.00  0.00    +0.000 A 
ATOM      9  C   UNL     1      34.851  -1.128  17.972  0.00  0.00    +0.000 A 
ATOM     10  C   UNL     1      35.064  -1.889  16.855  0.00  0.00    +0.000 A 
ATOM     11  C   UNL     1      35.768  -1.351  15.814  0.00  0.00    +0.000 A 
ATOM     12  C   UNL     1      36.265  -0.050  15.878  0.00  0.00    +0.000 A 
ATOM     13  N   UNL     1      36.957   0.481  14.856  0.00  0.00    +0.000 NA
ATOM     14  C   UNL     1      37.458   1.737  14.874  0.00  0.00    +0.000 A 
ENDROOT
BRANCH   1  15
ATOM     15  C   UNL     1      38.629   2.093  12.670  0.00  0.00    +0.000 C 
ATOM     16  O   UNL     1      38.097   2.622  11.634  0.00  0.00    +0.000 OA
BRANCH  15  17
ATOM     17  O   UNL     1      39.611   1.143  12.507  0.00  0.00    +0.000 OA
BRANCH  17  18
ATOM     18  C   UNL     1      40.777   1.322  13.516  0.00  0.00    +0.000 C 
ATOM     19  C   UNL     1      40.647  -0.260  14.056  0.00  0.00    +0.000 C 
BRANCH  18  20
ATOM     20  C   UNL     1      41.932   0.912  12.384  0.00  0.00    +0.000 C 
BRANCH  20  22
ATOM     21  C   UNL     1      42.517   3.111  12.484  0.00  0.00    +0.000 C 
ATOM     22  O   UNL     1      42.943   1.817  12.766  0.00  0.00    +0.000 OA
ENDBRANCH  20  22
ENDBRANCH  18  20
ENDBRANCH  17  18
ENDBRANCH  15  17
ENDBRANCH   1  15
BRANCH   4  23
ATOM     23  C   UNL     1      37.878   4.843  16.674  0.00  0.00    +0.000 C 
BRANCH  23  24
ATOM     24  C   UNL     1      39.091   4.833  17.568  0.00  0.00    +0.000 C 
BRANCH  24  25
ATOM     25  C   UNL     1      38.976   6.028  18.465  0.00  0.00    +0.000 A 
ATOM     26  C   UNL     1      39.829   6.217  19.535  0.00  0.00    +0.000 A 
ATOM     27  C   UNL     1      39.726   7.316  20.363  0.00  0.00    +0.000 A 
ATOM     28  C   UNL     1      38.764   8.270  20.154  0.00  0.00    +0.000 A 
ATOM     29  C   UNL     1      37.903   8.096  19.090  0.00  0.00    +0.000 A 
ATOM     30  C   UNL     1      38.012   6.994  18.266  0.00  0.00    +0.000 A 
ENDBRANCH  24  25
ENDBRANCH  23  24
ENDBRANCH   4  23
TORSDOF 8
ENDMDL
MODEL 9
REMARK VINA RESULT:      -6.6      3.594      6.051
REMARK  Name = 
REMARK  8 active torsions:
REMARK  status: ('A' for Active; 'I' for Inactive)
REMARK    1  A    between atoms: O_2  and  C_3
REMARK    2  A    between atoms: C_3  and  C_4
REMARK    3  A    between atoms: C_4  and  O_6
REMARK    4  A    between atoms: O_6  and  C_7
REMARK    5  A    between atoms: C_7  and  C_9
REMARK    6  A    between atoms: N_12  and  C_13
REMARK    7  A    between atoms: C_13  and  C_14
REMARK    8  A    between atoms: C_14  and  C_15
REMARK                            x       y       z     vdW  Elec       q    Type
REMARK                         _______ _______ _______ _____ _____    ______ ____
ROOT
ATOM      1  C   UNL     1      36.656   2.140  15.415  0.00  0.00    +0.000 A 
ATOM      2  C   UNL     1      36.873   2.023  14.082  0.00  0.00    +0.000 A 
ATOM      3  N   UNL     1      36.184   1.128  13.209  0.00  0.00    +0.000 NA
ATOM      4  N   UNL     1      37.858   2.909  13.746  0.00  0.00    +0.000 N 
ATOM      5  C   UNL     1      38.259   3.576  14.840  0.00  0.00    +0.000 A 
ATOM      6  N   UNL     1      39.183   4.530  15.017  0.00  0.00    +0.000 NA
ATOM      7  C   UNL     1      39.400   5.051  16.261  0.00  0.00    +0.000 A 
ATOM      8  C   UNL     1      40.334   6.030  16.493  0.00  0.00    +0.000 A 
ATOM      9  C   UNL     1      40.546   6.555  17.770  0.00  0.00    +0.000 A 
ATOM     10  C   UNL     1      39.812   6.096  18.829  0.00  0.00    +0.000 A 
ATOM     11  C   UNL     1      38.878   5.121  18.613  0.00  0.00    +0.000 A 
ATOM     12  C   UNL     1      38.667   4.598  17.339  0.00  0.00    +0.000 A 
ATOM     13  N   UNL     1      37.749   3.640  17.124  0.00  0.00    +0.000 NA
ATOM     14  C   UNL     1      37.511   3.103  15.906  0.00  0.00    +0.000 A 
ENDROOT
BRANCH   1  15
ATOM     15  C   UNL     1      35.690   1.385  16.203  0.00  0.00    +0.000 C 
ATOM     16  O   UNL     1      34.625   1.964  16.610  0.00  0.00    +0.000 OA
BRANCH  15  17
ATOM     17  O   UNL     1      35.895   0.062  16.522  0.00  0.00    +0.000 OA
BRANCH  17  18
ATOM     18  C   UNL     1      35.427  -0.275  17.964  0.00  0.00    +0.000 C 
ATOM     19  C   UNL     1      34.257  -1.341  17.410  0.00  0.00    +0.000 C 
BRANCH  18  20
ATOM     20  C   UNL     1      36.553  -1.494  18.133  0.00  0.00    +0.000 C 
BRANCH  20  22
ATOM     21  C   UNL     1      38.480  -1.997  17.025  0.00  0.00    +0.000 C 
ATOM     22  O   UNL     1      37.548  -0.993  17.269  0.00  0.00    +0.000 OA
ENDBRANCH  20  22
ENDBRANCH  18  20
ENDBRANCH  17  18
ENDBRANCH  15  17
ENDBRANCH   1  15
BRANCH   4  23
ATOM     23  C   UNL     1      38.314   3.020  12.382  0.00  0.00    +0.000 C 
BRANCH  23  24
ATOM     24  C   UNL     1      37.633   4.132  11.630  0.00  0.00    +0.000 C 
BRANCH  24  25
ATOM     25  C   UNL     1      37.175   3.554  10.325  0.00  0.00    +0.000 A 
ATOM     26  C   UNL     1      36.439   4.295   9.421  0.00  0.00    +0.000 A 
ATOM     27  C   UNL     1      36.016   3.766   8.219  0.00  0.00    +0.000 A 
ATOM     28  C   UNL     1      36.311   2.473   7.875  0.00  0.00    +0.000 A 
ATOM     29  C   UNL     1      37.045   1.718   8.767  0.00  0.00    +0.000 A 
ATOM     30  C   UNL     1      37.465   2.254   9.967  0.00  0.00    +0.000 A 
ENDBRANCH  24  25
ENDBRANCH  23  24
ENDBRANCH   4  23
TORSDOF 8
ENDMDL
MODEL 10
REMARK VINA RESULT:      -6.4      3.690      7.493
REMARK  Name = 
REMARK  8 active torsions:
REMARK  status: ('A' for Active; 'I' for Inactive)
REMARK    1  A    between atoms: O_2  and  C_3
REMARK    2  A    between atoms: C_3  and  C_4
REMARK    3  A    between atoms: C_4  and  O_6
REMARK    4  A    between atoms: O_6  and  C_7
REMARK    5  A    between atoms: C_7  and  C_9
REMARK    6  A    between atoms: N_12  and  C_13
REMARK    7  A    between atoms: C_13  and  C_14
REMARK    8  A    between atoms: C_14  and  C_15
REMARK                            x       y       z     vdW  Elec       q    Type
REMARK                         _______ _______ _______ _____ _____    ______ ____
ROOT
ATOM      1  C   UNL     1      37.663   2.879  14.209  0.00  0.00    +0.000 A 
ATOM      2  C   UNL     1      36.629   2.154  14.700  0.00  0.00    +0.000 A 
ATOM      3  N   UNL     1      35.820   1.252  13.945  0.00  0.00    +0.000 NA
ATOM      4  N   UNL     1      36.514   2.450  16.030  0.00  0.00    +0.000 N 
ATOM      5  C   UNL     1      37.454   3.343  16.378  0.00  0.00    +0.000 A 
ATOM      6  N   UNL     1      37.742   3.929  17.548  0.00  0.00    +0.000 NA
ATOM      7  C   UNL     1      38.773   4.821  17.632  0.00  0.00    +0.000 A 
ATOM      8  C   UNL     1      39.107   5.447  18.807  0.00  0.00    +0.000 A 
ATOM      9  C   UNL     1      40.164   6.357  18.880  0.00  0.00    +0.000 A 
ATOM     10  C   UNL     1      40.898   6.644  17.762  0.00  0.00    +0.000 A 
ATOM     11  C   UNL     1      40.577   6.029  16.584  0.00  0.00    +0.000 A 
ATOM     12  C   UNL     1      39.522   5.120  16.512  0.00  0.00    +0.000 A 
ATOM     13  N   UNL     1      39.205   4.514  15.356  0.00  0.00    +0.000 NA
ATOM     14  C   UNL     1      38.191   3.627  15.239  0.00  0.00    +0.000 A 
ENDROOT
BRANCH   1  15
ATOM     15  C   UNL     1      38.143   2.877  12.832  0.00  0.00    +0.000 C 
ATOM     16  O   UNL     1      39.169   2.176  12.528  0.00  0.00    +0.000 OA
BRANCH  15  17
ATOM     17  O   UNL     1      37.521   3.612  11.850  0.00  0.00    +0.000 OA
BRANCH  17  18
ATOM     18  C   UNL     1      37.731   5.140  12.035  0.00  0.00    +0.000 C 
ATOM     19  C   UNL     1      38.197   5.340  10.436  0.00  0.00    +0.000 C 
BRANCH  18  20
ATOM     20  C   UNL     1      36.137   5.486  11.683  0.00  0.00    +0.000 C 
BRANCH  20  22
ATOM     21  C   UNL     1      36.483   6.523  13.683  0.00  0.00    +0.000 C 
ATOM     22  O   UNL     1      35.653   5.640  12.999  0.00  0.00    +0.000 OA
ENDBRANCH  20  22
ENDBRANCH  18  20
ENDBRANCH  17  18
ENDBRANCH  15  17
ENDBRANCH   1  15
BRANCH   4  23
ATOM     23  C   UNL     1      35.492   1.829  16.836  0.00  0.00    +0.000 C 
BRANCH  23  24
ATOM     24  C   UNL     1      36.060   1.022  17.974  0.00  0.00    +0.000 C 
BRANCH  24  25
ATOM     25  C   UNL     1      35.973  -0.419  17.567  0.00  0.00    +0.000 A 
ATOM     26  C   UNL     1      34.859  -0.926  16.926  0.00  0.00    +0.000 A 
ATOM     27  C   UNL     1      34.776  -2.250  16.550  0.00  0.00    +0.000 A 
ATOM     28  C   UNL     1      35.804  -3.121  16.802  0.00  0.00    +0.000 A 
ATOM     29  C   UNL     1      36.923  -2.632  17.443  0.00  0.00    +0.000 A 
ATOM     30  C   UNL     1      37.000  -1.305  17.816  0.00  0.00    +0.000 A 
ENDBRANCH  24  25
ENDBRANCH  23  24
ENDBRANCH   4  23
TORSDOF 8
ENDMDL
