MODEL 1
REMARK VINA RESULT:      -7.0      0.000      0.000
REMARK  Name = 
REMARK  0 active torsions:
REMARK  status: ('A' for Active; 'I' for Inactive)
REMARK                            x       y       z     vdW  Elec       q    Type
REMARK                         _______ _______ _______ _____ _____    ______ ____
ROOT
ATOM      1  C   UNL     1      27.893  26.054  29.943  0.00  0.00    +0.000 C 
ATOM      2  C   UNL     1      27.244  24.766  29.663  0.00  0.00    +0.000 C 
ATOM      3  C   UNL     1      26.040  24.698  28.896  0.00  0.00    +0.000 C 
ATOM      4  C   UNL     1      26.258  25.221  27.543  0.00  0.00    +0.000 C 
ATOM      5  C   UNL     1      27.791  24.838  27.098  0.00  0.00    +0.000 C 
ATOM      6  C   UNL     1      27.659  23.265  27.707  0.00  0.00    +0.000 C 
ATOM      7  C   UNL     1      29.029  22.758  27.066  0.00  0.00    +0.000 C 
ATOM      8  C   UNL     1      28.907  22.633  25.593  0.00  0.00    +0.000 C 
ATOM      9  C   UNL     1      27.306  22.959  25.357  0.00  0.00    +0.000 C 
ATOM     10  C   UNL     1      27.466  23.038  23.719  0.00  0.00    +0.000 C 
ATOM     11  C   UNL     1      26.091  23.459  23.387  0.00  0.00    +0.000 C 
ATOM     12  O   UNL     1      25.548  22.945  22.451  0.00  0.00    +0.000 OA
ATOM     13  C   UNL     1      25.367  24.483  24.163  0.00  0.00    +0.000 C 
ATOM     14  C   UNL     1      26.269  25.256  25.092  0.00  0.00    +0.000 C 
ATOM     15  C   UNL     1      27.464  24.563  25.547  0.00  0.00    +0.000 C 
ATOM     16  C   UNL     1      28.648  24.994  24.746  0.00  0.00    +0.000 C 
ATOM     17  C   UNL     1      28.376  23.704  29.178  0.00  0.00    +0.000 C 
ATOM     18  C   UNL     1      27.772  22.392  29.935  0.00  0.00    +0.000 C 
ATOM     19  C   UNL     1      26.422  22.708  30.310  0.00  0.00    +0.000 C 
ATOM     20  C   UNL     1      26.980  24.053  31.142  0.00  0.00    +0.000 C 
ATOM     21  O   UNL     1      25.566  24.644  31.293  0.00  0.00    +0.000 OA
ENDROOT
TORSDOF 0
ENDMDL
MODEL 2
REMARK VINA RESULT:      -6.8     15.132     19.124
REMARK  Name = 
REMARK  0 active torsions:
REMARK  status: ('A' for Active; 'I' for Inactive)
REMARK                            x       y       z     vdW  Elec       q    Type
REMARK                         _______ _______ _______ _____ _____    ______ ____
ROOT
ATOM      1  C   UNL     1      32.631  19.999   6.523  0.00  0.00    +0.000 C 
ATOM      2  C   UNL     1      32.884  21.308   7.140  0.00  0.00    +0.000 C 
ATOM      3  C   UNL     1      31.808  22.185   7.480  0.00  0.00    +0.000 C 
ATOM      4  C   UNL     1      30.921  21.557   8.466  0.00  0.00    +0.000 C 
ATOM      5  C   UNL     1      31.845  20.624   9.451  0.00  0.00    +0.000 C 
ATOM      6  C   UNL     1      33.042  21.813   9.584  0.00  0.00    +0.000 C 
ATOM      7  C   UNL     1      33.843  21.066  10.744  0.00  0.00    +0.000 C 
ATOM      8  C   UNL     1      33.086  21.110  12.019  0.00  0.00    +0.000 C 
ATOM      9  C   UNL     1      31.804  22.070  11.619  0.00  0.00    +0.000 C 
ATOM     10  C   UNL     1      31.007  21.754  13.027  0.00  0.00    +0.000 C 
ATOM     11  C   UNL     1      29.753  22.475  12.732  0.00  0.00    +0.000 C 
ATOM     12  O   UNL     1      29.259  23.136  13.600  0.00  0.00    +0.000 OA
ATOM     13  C   UNL     1      29.093  22.410  11.414  0.00  0.00    +0.000 C 
ATOM     14  C   UNL     1      29.641  21.309  10.541  0.00  0.00    +0.000 C 
ATOM     15  C   UNL     1      31.016  20.913  10.800  0.00  0.00    +0.000 C 
ATOM     16  C   UNL     1      31.050  19.673  11.632  0.00  0.00    +0.000 C 
ATOM     17  C   UNL     1      33.962  21.118   8.344  0.00  0.00    +0.000 C 
ATOM     18  C   UNL     1      34.793  22.501   8.101  0.00  0.00    +0.000 C 
ATOM     19  C   UNL     1      33.983  23.335   7.257  0.00  0.00    +0.000 C 
ATOM     20  C   UNL     1      33.925  22.106   6.117  0.00  0.00    +0.000 C 
ATOM     21  O   UNL     1      32.793  22.786   5.325  0.00  0.00    +0.000 OA
ENDROOT
TORSDOF 0
ENDMDL
MODEL 3
REMARK VINA RESULT:      -6.5      1.913      6.012
REMARK  Name = 
REMARK  0 active torsions:
REMARK  status: ('A' for Active; 'I' for Inactive)
REMARK                            x       y       z     vdW  Elec       q    Type
REMARK                         _______ _______ _______ _____ _____    ______ ____
ROOT
ATOM      1  C   UNL     1      29.143  26.631  23.131  0.00  0.00    +0.000 C 
ATOM      2  C   UNL     1      28.567  25.280  23.117  0.00  0.00    +0.000 C 
ATOM      3  C   UNL     1      29.189  24.205  23.825  0.00  0.00    +0.000 C 
ATOM      4  C   UNL     1      29.240  24.492  25.262  0.00  0.00    +0.000 C 
ATOM      5  C   UNL     1      27.892  25.343  25.653  0.00  0.00    +0.000 C 
ATOM      6  C   UNL     1      26.895  24.341  24.723  0.00  0.00    +0.000 C 
ATOM      7  C   UNL     1      25.532  24.959  25.275  0.00  0.00    +0.000 C 
ATOM      8  C   UNL     1      25.305  24.559  26.685  0.00  0.00    +0.000 C 
ATOM      9  C   UNL     1      26.557  23.516  26.946  0.00  0.00    +0.000 C 
ATOM     10  C   UNL     1      26.273  23.433  28.568  0.00  0.00    +0.000 C 
ATOM     11  C   UNL     1      27.435  22.605  28.949  0.00  0.00    +0.000 C 
ATOM     12  O   UNL     1      27.270  21.724  29.742  0.00  0.00    +0.000 OA
ATOM     13  C   UNL     1      28.782  22.826  28.388  0.00  0.00    +0.000 C 
ATOM     14  C   UNL     1      28.905  24.143  27.665  0.00  0.00    +0.000 C 
ATOM     15  C   UNL     1      27.676  24.680  27.103  0.00  0.00    +0.000 C 
ATOM     16  C   UNL     1      27.109  25.728  28.004  0.00  0.00    +0.000 C 
ATOM     17  C   UNL     1      26.967  25.391  23.395  0.00  0.00    +0.000 C 
ATOM     18  C   UNL     1      26.494  24.218  22.364  0.00  0.00    +0.000 C 
ATOM     19  C   UNL     1      27.663  23.453  22.033  0.00  0.00    +0.000 C 
ATOM     20  C   UNL     1      28.422  24.857  21.516  0.00  0.00    +0.000 C 
ATOM     21  O   UNL     1      29.805  24.183  21.459  0.00  0.00    +0.000 OA
ENDROOT
TORSDOF 0
ENDMDL
MODEL 4
REMARK VINA RESULT:      -6.4     20.807     23.269
REMARK  Name = 
REMARK  0 active torsions:
REMARK  status: ('A' for Active; 'I' for Inactive)
REMARK                            x       y       z     vdW  Elec       q    Type
REMARK                         _______ _______ _______ _____ _____    ______ ____
ROOT
ATOM      1  C   UNL     1      27.991   4.127  15.397  0.00  0.00    +0.000 C 
ATOM      2  C   UNL     1      26.923   4.999  15.902  0.00  0.00    +0.000 C 
ATOM      3  C   UNL     1      25.703   5.168  15.176  0.00  0.00    +0.000 C 
ATOM      4  C   UNL     1      25.001   3.888  15.039  0.00  0.00    +0.000 C 
ATOM      5  C   UNL     1      25.282   3.012  16.398  0.00  0.00    +0.000 C 
ATOM      6  C   UNL     1      25.033   4.349  17.405  0.00  0.00    +0.000 C 
ATOM      7  C   UNL     1      25.033   3.500  18.756  0.00  0.00    +0.000 C 
ATOM      8  C   UNL     1      23.801   2.679  18.862  0.00  0.00    +0.000 C 
ATOM      9  C   UNL     1      22.946   3.181  17.542  0.00  0.00    +0.000 C 
ATOM     10  C   UNL     1      21.815   1.993  17.706  0.00  0.00    +0.000 C 
ATOM     11  C   UNL     1      21.040   2.262  16.478  0.00  0.00    +0.000 C 
ATOM     12  O   UNL     1      19.844   2.224  16.541  0.00  0.00    +0.000 OA
ATOM     13  C   UNL     1      21.683   2.574  15.188  0.00  0.00    +0.000 C 
ATOM     14  C   UNL     1      23.161   2.275  15.185  0.00  0.00    +0.000 C 
ATOM     15  C   UNL     1      23.826   2.331  16.477  0.00  0.00    +0.000 C 
ATOM     16  C   UNL     1      23.995   0.955  17.032  0.00  0.00    +0.000 C 
ATOM     17  C   UNL     1      26.692   4.683  17.481  0.00  0.00    +0.000 C 
ATOM     18  C   UNL     1      26.423   6.218  17.965  0.00  0.00    +0.000 C 
ATOM     19  C   UNL     1      26.154   6.990  16.783  0.00  0.00    +0.000 C 
ATOM     20  C   UNL     1      27.619   6.491  16.137  0.00  0.00    +0.000 C 
ATOM     21  O   UNL     1      27.261   6.998  14.728  0.00  0.00    +0.000 OA
ENDROOT
TORSDOF 0
ENDMDL
MODEL 5
REMARK VINA RESULT:      -6.4     16.651     18.768
REMARK  Name = 
REMARK  0 active torsions:
REMARK  status: ('A' for Active; 'I' for Inactive)
REMARK                            x       y       z     vdW  Elec       q    Type
REMARK                         _______ _______ _______ _____ _____    ______ ____
ROOT
ATOM      1  C   UNL     1      15.321  11.456  37.564  0.00  0.00    +0.000 C 
ATOM      2  C   UNL     1      16.351  11.450  36.517  0.00  0.00    +0.000 C 
ATOM      3  C   UNL     1      17.225  12.566  36.335  0.00  0.00    +0.000 C 
ATOM      4  C   UNL     1      18.027  12.798  37.542  0.00  0.00    +0.000 C 
ATOM      5  C   UNL     1      18.343  11.338  38.223  0.00  0.00    +0.000 C 
ATOM      6  C   UNL     1      18.705  10.632  36.728  0.00  0.00    +0.000 C 
ATOM      7  C   UNL     1      19.277   9.281  37.355  0.00  0.00    +0.000 C 
ATOM      8  C   UNL     1      20.583   9.519  38.017  0.00  0.00    +0.000 C 
ATOM      9  C   UNL     1      20.872  11.099  37.637  0.00  0.00    +0.000 C 
ATOM     10  C   UNL     1      22.159  11.208  38.662  0.00  0.00    +0.000 C 
ATOM     11  C   UNL     1      22.438  12.649  38.505  0.00  0.00    +0.000 C 
ATOM     12  O   UNL     1      23.579  13.000  38.407  0.00  0.00    +0.000 OA
ATOM     13  C   UNL     1      21.368  13.663  38.464  0.00  0.00    +0.000 C 
ATOM     14  C   UNL     1      20.034  13.122  38.912  0.00  0.00    +0.000 C 
ATOM     15  C   UNL     1      19.829  11.694  38.728  0.00  0.00    +0.000 C 
ATOM     16  C   UNL     1      20.061  10.969  40.012  0.00  0.00    +0.000 C 
ATOM     17  C   UNL     1      17.133  10.024  36.561  0.00  0.00    +0.000 C 
ATOM     18  C   UNL     1      17.312   9.833  34.951  0.00  0.00    +0.000 C 
ATOM     19  C   UNL     1      17.059  11.111  34.346  0.00  0.00    +0.000 C 
ATOM     20  C   UNL     1      15.555  11.152  35.088  0.00  0.00    +0.000 C 
ATOM     21  O   UNL     1      15.350  12.644  34.769  0.00  0.00    +0.000 OA
ENDROOT
TORSDOF 0
ENDMDL
MODEL 6
REMARK VINA RESULT:      -6.3      1.890      5.938
REMARK  Name = 
REMARK  0 active torsions:
REMARK  status: ('A' for Active; 'I' for Inactive)
REMARK                            x       y       z     vdW  Elec       q    Type
REMARK                         _______ _______ _______ _____ _____    ______ ____
ROOT
ATOM      1  C   UNL     1      26.233  23.444  22.994  0.00  0.00    +0.000 C 
ATOM      2  C   UNL     1      27.431  24.243  23.286  0.00  0.00    +0.000 C 
ATOM      3  C   UNL     1      27.409  25.273  24.277  0.00  0.00    +0.000 C 
ATOM      4  C   UNL     1      27.095  24.714  25.597  0.00  0.00    +0.000 C 
ATOM      5  C   UNL     1      27.759  23.215  25.678  0.00  0.00    +0.000 C 
ATOM      6  C   UNL     1      29.207  23.732  24.970  0.00  0.00    +0.000 C 
ATOM      7  C   UNL     1      29.992  22.375  25.265  0.00  0.00    +0.000 C 
ATOM      8  C   UNL     1      30.277  22.235  26.714  0.00  0.00    +0.000 C 
ATOM      9  C   UNL     1      29.741  23.680  27.305  0.00  0.00    +0.000 C 
ATOM     10  C   UNL     1      29.890  23.201  28.875  0.00  0.00    +0.000 C 
ATOM     11  C   UNL     1      29.308  24.394  29.522  0.00  0.00    +0.000 C 
ATOM     12  O   UNL     1      29.844  24.829  30.500  0.00  0.00    +0.000 OA
ATOM     13  C   UNL     1      28.097  25.062  29.007  0.00  0.00    +0.000 C 
ATOM     14  C   UNL     1      27.363  24.232  27.985  0.00  0.00    +0.000 C 
ATOM     15  C   UNL     1      28.169  23.284  27.232  0.00  0.00    +0.000 C 
ATOM     16  C   UNL     1      28.026  21.913  27.805  0.00  0.00    +0.000 C 
ATOM     17  C   UNL     1      28.705  23.242  23.428  0.00  0.00    +0.000 C 
ATOM     18  C   UNL     1      29.807  24.199  22.699  0.00  0.00    +0.000 C 
ATOM     19  C   UNL     1      29.244  25.519  22.642  0.00  0.00    +0.000 C 
ATOM     20  C   UNL     1      27.909  24.904  21.836  0.00  0.00    +0.000 C 
ATOM     21  O   UNL     1      27.094  26.195  22.035  0.00  0.00    +0.000 OA
ENDROOT
TORSDOF 0
ENDMDL
MODEL 7
REMARK VINA RESULT:      -6.2     19.853     22.375
REMARK  Name = 
REMARK  0 active torsions:
REMARK  status: ('A' for Active; 'I' for Inactive)
REMARK                            x       y       z     vdW  Elec       q    Type
REMARK                         _______ _______ _______ _____ _____    ______ ____
ROOT
ATOM      1  C   UNL     1      23.638   3.582  15.223  0.00  0.00    +0.000 C 
ATOM      2  C   UNL     1      24.519   3.352  16.376  0.00  0.00    +0.000 C 
ATOM      3  C   UNL     1      25.826   2.796  16.208  0.00  0.00    +0.000 C 
ATOM      4  C   UNL     1      26.655   3.668  15.369  0.00  0.00    +0.000 C 
ATOM      5  C   UNL     1      26.225   5.221  15.679  0.00  0.00    +0.000 C 
ATOM      6  C   UNL     1      26.173   4.955  17.350  0.00  0.00    +0.000 C 
ATOM      7  C   UNL     1      26.019   6.498  17.726  0.00  0.00    +0.000 C 
ATOM      8  C   UNL     1      27.283   7.231  17.472  0.00  0.00    +0.000 C 
ATOM      9  C   UNL     1      28.303   6.007  17.042  0.00  0.00    +0.000 C 
ATOM     10  C   UNL     1      29.493   7.041  16.559  0.00  0.00    +0.000 C 
ATOM     11  C   UNL     1      30.440   6.045  16.021  0.00  0.00    +0.000 C 
ATOM     12  O   UNL     1      31.605   6.179  16.264  0.00  0.00    +0.000 OA
ATOM     13  C   UNL     1      30.003   4.899  15.201  0.00  0.00    +0.000 C 
ATOM     14  C   UNL     1      28.581   5.036  14.718  0.00  0.00    +0.000 C 
ATOM     15  C   UNL     1      27.701   5.846  15.544  0.00  0.00    +0.000 C 
ATOM     16  C   UNL     1      27.566   7.217  14.966  0.00  0.00    +0.000 C 
ATOM     17  C   UNL     1      24.502   4.677  17.320  0.00  0.00    +0.000 C 
ATOM     18  C   UNL     1      24.543   3.909  18.759  0.00  0.00    +0.000 C 
ATOM     19  C   UNL     1      24.940   2.553  18.501  0.00  0.00    +0.000 C 
ATOM     20  C   UNL     1      23.659   2.394  17.429  0.00  0.00    +0.000 C 
ATOM     21  O   UNL     1      24.207   1.078  16.847  0.00  0.00    +0.000 OA
ENDROOT
TORSDOF 0
ENDMDL
MODEL 8
REMARK VINA RESULT:      -6.2     17.274     18.677
REMARK  Name = 
REMARK  0 active torsions:
REMARK  status: ('A' for Active; 'I' for Inactive)
REMARK                            x       y       z     vdW  Elec       q    Type
REMARK                         _______ _______ _______ _____ _____    ______ ____
ROOT
ATOM      1  C   UNL     1      20.039   9.497  39.935  0.00  0.00    +0.000 C 
ATOM      2  C   UNL     1      20.489  10.358  38.834  0.00  0.00    +0.000 C 
ATOM      3  C   UNL     1      20.503   9.885  37.485  0.00  0.00    +0.000 C 
ATOM      4  C   UNL     1      19.150   9.525  37.048  0.00  0.00    +0.000 C 
ATOM      5  C   UNL     1      18.098  10.558  37.770  0.00  0.00    +0.000 C 
ATOM      6  C   UNL     1      19.080  11.900  37.458  0.00  0.00    +0.000 C 
ATOM      7  C   UNL     1      17.985  12.972  37.903  0.00  0.00    +0.000 C 
ATOM      8  C   UNL     1      16.882  13.040  36.913  0.00  0.00    +0.000 C 
ATOM      9  C   UNL     1      17.430  12.032  35.726  0.00  0.00    +0.000 C 
ATOM     10  C   UNL     1      15.992  12.046  34.920  0.00  0.00    +0.000 C 
ATOM     11  C   UNL     1      16.320  11.055  33.876  0.00  0.00    +0.000 C 
ATOM     12  O   UNL     1      15.975  11.278  32.752  0.00  0.00    +0.000 OA
ATOM     13  C   UNL     1      17.054   9.809  34.170  0.00  0.00    +0.000 C 
ATOM     14  C   UNL     1      17.139   9.516  35.646  0.00  0.00    +0.000 C 
ATOM     15  C   UNL     1      17.077  10.668  36.531  0.00  0.00    +0.000 C 
ATOM     16  C   UNL     1      15.699  10.820  37.087  0.00  0.00    +0.000 C 
ATOM     17  C   UNL     1      19.791  11.819  38.994  0.00  0.00    +0.000 C 
ATOM     18  C   UNL     1      21.068  12.715  38.518  0.00  0.00    +0.000 C 
ATOM     19  C   UNL     1      21.986  11.824  37.865  0.00  0.00    +0.000 C 
ATOM     20  C   UNL     1      22.019  10.867  39.241  0.00  0.00    +0.000 C 
ATOM     21  O   UNL     1      22.714   9.703  38.511  0.00  0.00    +0.000 OA
ENDROOT
TORSDOF 0
ENDMDL
MODEL 9
REMARK VINA RESULT:      -6.2      2.800      6.258
REMARK  Name = 
REMARK  0 active torsions:
REMARK  status: ('A' for Active; 'I' for Inactive)
REMARK                            x       y       z     vdW  Elec       q    Type
REMARK                         _______ _______ _______ _____ _____    ______ ____
ROOT
ATOM      1  C   UNL     1      27.659  27.244  23.446  0.00  0.00    +0.000 C 
ATOM      2  C   UNL     1      28.312  25.990  23.049  0.00  0.00    +0.000 C 
ATOM      3  C   UNL     1      29.676  25.728  23.386  0.00  0.00    +0.000 C 
ATOM      4  C   UNL     1      29.855  25.708  24.842  0.00  0.00    +0.000 C 
ATOM      5  C   UNL     1      28.488  25.088  25.507  0.00  0.00    +0.000 C 
ATOM      6  C   UNL     1      28.390  23.856  24.351  0.00  0.00    +0.000 C 
ATOM      7  C   UNL     1      27.228  23.061  25.102  0.00  0.00    +0.000 C 
ATOM      8  C   UNL     1      27.743  22.418  26.336  0.00  0.00    +0.000 C 
ATOM      9  C   UNL     1      29.359  22.742  26.238  0.00  0.00    +0.000 C 
ATOM     10  C   UNL     1      29.655  22.209  27.770  0.00  0.00    +0.000 C 
ATOM     11  C   UNL     1      31.083  22.572  27.852  0.00  0.00    +0.000 C 
ATOM     12  O   UNL     1      31.841  21.791  28.353  0.00  0.00    +0.000 OA
ATOM     13  C   UNL     1      31.605  23.855  27.344  0.00  0.00    +0.000 C 
ATOM     14  C   UNL     1      30.514  24.850  27.041  0.00  0.00    +0.000 C 
ATOM     15  C   UNL     1      29.215  24.291  26.701  0.00  0.00    +0.000 C 
ATOM     16  C   UNL     1      28.311  24.322  27.889  0.00  0.00    +0.000 C 
ATOM     17  C   UNL     1      27.315  24.750  23.394  0.00  0.00    +0.000 C 
ATOM     18  C   UNL     1      27.641  23.846  22.076  0.00  0.00    +0.000 C 
ATOM     19  C   UNL     1      28.849  24.366  21.497  0.00  0.00    +0.000 C 
ATOM     20  C   UNL     1      28.135  25.881  21.399  0.00  0.00    +0.000 C 
ATOM     21  O   UNL     1      29.475  26.580  21.104  0.00  0.00    +0.000 OA
ENDROOT
TORSDOF 0
ENDMDL
MODEL 10
REMARK VINA RESULT:      -6.2      1.879      3.052
REMARK  Name = 
REMARK  0 active torsions:
REMARK  status: ('A' for Active; 'I' for Inactive)
REMARK                            x       y       z     vdW  Elec       q    Type
REMARK                         _______ _______ _______ _____ _____    ______ ____
ROOT
ATOM      1  C   UNL     1      26.051  23.859  28.702  0.00  0.00    +0.000 C 
ATOM      2  C   UNL     1      27.482  23.749  28.388  0.00  0.00    +0.000 C 
ATOM      3  C   UNL     1      27.955  22.811  27.419  0.00  0.00    +0.000 C 
ATOM      4  C   UNL     1      27.381  23.096  26.099  0.00  0.00    +0.000 C 
ATOM      5  C   UNL     1      27.211  24.723  25.965  0.00  0.00    +0.000 C 
ATOM      6  C   UNL     1      28.738  25.016  26.635  0.00  0.00    +0.000 C 
ATOM      7  C   UNL     1      28.740  26.572  26.286  0.00  0.00    +0.000 C 
ATOM      8  C   UNL     1      28.891  26.785  24.826  0.00  0.00    +0.000 C 
ATOM      9  C   UNL     1      29.133  25.246  24.283  0.00  0.00    +0.000 C 
ATOM     10  C   UNL     1      28.995  25.682  22.699  0.00  0.00    +0.000 C 
ATOM     11  C   UNL     1      29.069  24.336  22.097  0.00  0.00    +0.000 C 
ATOM     12  O   UNL     1      29.733  24.190  21.111  0.00  0.00    +0.000 OA
ATOM     13  C   UNL     1      28.360  23.174  22.665  0.00  0.00    +0.000 C 
ATOM     14  C   UNL     1      27.329  23.565  23.694  0.00  0.00    +0.000 C 
ATOM     15  C   UNL     1      27.573  24.813  24.400  0.00  0.00    +0.000 C 
ATOM     16  C   UNL     1      26.757  25.913  23.805  0.00  0.00    +0.000 C 
ATOM     17  C   UNL     1      28.088  25.245  28.182  0.00  0.00    +0.000 C 
ATOM     18  C   UNL     1      29.533  24.986  28.894  0.00  0.00    +0.000 C 
ATOM     19  C   UNL     1      29.701  23.563  28.997  0.00  0.00    +0.000 C 
ATOM     20  C   UNL     1      28.251  23.463  29.834  0.00  0.00    +0.000 C 
ATOM     21  O   UNL     1      28.182  21.931  29.688  0.00  0.00    +0.000 OA
ENDROOT
TORSDOF 0
ENDMDL
