MODEL 1
REMARK VINA RESULT:      -7.4      0.000      0.000
REMARK  Name = 
REMARK  3 active torsions:
REMARK  status: ('A' for Active; 'I' for Inactive)
REMARK    1  A    between atoms: C_5  and  N_6
REMARK    2  A    between atoms: N_6  and  C_7
REMARK    3  A    between atoms: C_9  and  C_10
REMARK                            x       y       z     vdW  Elec       q    Type
REMARK                         _______ _______ _______ _____ _____    ______ ____
ROOT
ATOM      1  C   UNL     1      16.580  10.837  35.527  0.00  0.00    +0.000 A 
ATOM      2  C   UNL     1      15.874  11.416  34.541  0.00  0.00    +0.000 A 
ATOM      3  C   UNL     1      16.160  11.118  33.270  0.00  0.00    +0.000 A 
ATOM      4  C   UNL     1      17.193  10.217  33.078  0.00  0.00    +0.000 A 
ATOM      5  S   UNL     1      17.681   9.840  34.653  0.00  0.00    +0.000 S 
ENDROOT
BRANCH   3   6
ATOM      6  C   UNL     1      15.379  11.704  32.095  0.00  0.00    +0.000 C 
ATOM      7  C   UNL     1      14.510  10.610  31.531  0.00  0.00    +0.000 C 
ATOM      8  C   UNL     1      16.304  12.321  31.077  0.00  0.00    +0.000 C 
ATOM      9  C   UNL     1      15.501  13.496  30.543  0.00  0.00    +0.000 C 
ATOM     10  C   UNL     1      14.319  13.584  31.438  0.00  0.00    +0.000 C 
ATOM     11  O   UNL     1      13.273  14.260  31.207  0.00  0.00    +0.000 OA
ATOM     12  O   UNL     1      14.608  12.783  32.559  0.00  0.00    +0.000 OA
ENDBRANCH   3   6
BRANCH   1  13
ATOM     13  N   UNL     1      16.508  10.962  36.977  0.00  0.00    +0.000 NA
BRANCH  13  18
ATOM     14  C   UNL     1      21.399  12.704  39.422  0.00  0.00    +0.000 C 
ATOM     15  C   UNL     1      20.101  12.284  38.786  0.00  0.00    +0.000 A 
ATOM     16  C   UNL     1      19.586  11.015  38.982  0.00  0.00    +0.000 A 
ATOM     17  C   UNL     1      18.411  10.580  38.414  0.00  0.00    +0.000 A 
ATOM     18  C   UNL     1      17.715  11.448  37.606  0.00  0.00    +0.000 A 
ATOM     19  C   UNL     1      18.192  12.697  37.390  0.00  0.00    +0.000 A 
ATOM     20  C   UNL     1      19.386  13.135  37.971  0.00  0.00    +0.000 A 
ENDBRANCH  13  18
ENDBRANCH   1  13
TORSDOF 3
ENDMDL
MODEL 2
REMARK VINA RESULT:      -6.7      4.483      8.008
REMARK  Name = 
REMARK  3 active torsions:
REMARK  status: ('A' for Active; 'I' for Inactive)
REMARK    1  A    between atoms: C_5  and  N_6
REMARK    2  A    between atoms: N_6  and  C_7
REMARK    3  A    between atoms: C_9  and  C_10
REMARK                            x       y       z     vdW  Elec       q    Type
REMARK                         _______ _______ _______ _____ _____    ______ ____
ROOT
ATOM      1  C   UNL     1      18.893  10.305  37.225  0.00  0.00    +0.000 A 
ATOM      2  C   UNL     1      20.197  10.035  37.044  0.00  0.00    +0.000 A 
ATOM      3  C   UNL     1      21.113  10.846  37.582  0.00  0.00    +0.000 A 
ATOM      4  C   UNL     1      20.622  11.925  38.294  0.00  0.00    +0.000 A 
ATOM      5  S   UNL     1      18.944  11.737  38.182  0.00  0.00    +0.000 S 
ENDROOT
BRANCH   3   6
ATOM      6  C   UNL     1      22.614  10.587  37.453  0.00  0.00    +0.000 C 
ATOM      7  C   UNL     1      23.335  11.805  37.970  0.00  0.00    +0.000 C 
ATOM      8  C   UNL     1      22.986  10.224  36.038  0.00  0.00    +0.000 C 
ATOM      9  C   UNL     1      24.126   9.236  36.220  0.00  0.00    +0.000 C 
ATOM     10  C   UNL     1      24.152   8.952  37.678  0.00  0.00    +0.000 C 
ATOM     11  O   UNL     1      25.096   8.377  38.296  0.00  0.00    +0.000 OA
ATOM     12  O   UNL     1      22.940   9.443  38.200  0.00  0.00    +0.000 OA
ENDBRANCH   3   6
BRANCH   1  13
ATOM     13  N   UNL     1      17.687   9.626  36.769  0.00  0.00    +0.000 NA
BRANCH  13  18
ATOM     14  C   UNL     1      15.254  12.109  32.203  0.00  0.00    +0.000 C 
ATOM     15  C   UNL     1      15.896  11.423  33.381  0.00  0.00    +0.000 A 
ATOM     16  C   UNL     1      15.501  11.707  34.676  0.00  0.00    +0.000 A 
ATOM     17  C   UNL     1      16.064  11.116  35.783  0.00  0.00    +0.000 A 
ATOM     18  C   UNL     1      17.072  10.201  35.595  0.00  0.00    +0.000 A 
ATOM     19  C   UNL     1      17.486   9.903  34.340  0.00  0.00    +0.000 A 
ATOM     20  C   UNL     1      16.909  10.504  33.218  0.00  0.00    +0.000 A 
ENDBRANCH  13  18
ENDBRANCH   1  13
TORSDOF 3
ENDMDL
MODEL 3
REMARK VINA RESULT:      -6.4     28.221     29.530
REMARK  Name = 
REMARK  3 active torsions:
REMARK  status: ('A' for Active; 'I' for Inactive)
REMARK    1  A    between atoms: C_5  and  N_6
REMARK    2  A    between atoms: N_6  and  C_7
REMARK    3  A    between atoms: C_9  and  C_10
REMARK                            x       y       z     vdW  Elec       q    Type
REMARK                         _______ _______ _______ _____ _____    ______ ____
ROOT
ATOM      1  C   UNL     1      34.907  20.622  11.241  0.00  0.00    +0.000 A 
ATOM      2  C   UNL     1      33.645  20.508  11.686  0.00  0.00    +0.000 A 
ATOM      3  C   UNL     1      32.749  21.445  11.358  0.00  0.00    +0.000 A 
ATOM      4  C   UNL     1      33.218  22.481  10.571  0.00  0.00    +0.000 A 
ATOM      5  S   UNL     1      34.845  22.083  10.330  0.00  0.00    +0.000 S 
ENDROOT
BRANCH   3   6
ATOM      6  C   UNL     1      31.286  21.367  11.793  0.00  0.00    +0.000 C 
ATOM      7  C   UNL     1      31.062  20.009  12.407  0.00  0.00    +0.000 C 
ATOM      8  C   UNL     1      30.357  21.666  10.644  0.00  0.00    +0.000 C 
ATOM      9  C   UNL     1      29.190  22.374  11.314  0.00  0.00    +0.000 C 
ATOM     10  C   UNL     1      29.644  22.616  12.708  0.00  0.00    +0.000 C 
ATOM     11  O   UNL     1      28.898  22.954  13.674  0.00  0.00    +0.000 OA
ATOM     12  O   UNL     1      31.035  22.395  12.717  0.00  0.00    +0.000 OA
ENDBRANCH   3   6
BRANCH   1  13
ATOM     13  N   UNL     1      36.084  19.783  11.430  0.00  0.00    +0.000 NA
BRANCH  13  18
ATOM     14  C   UNL     1      38.180  19.471  16.763  0.00  0.00    +0.000 C 
ATOM     15  C   UNL     1      37.630  19.593  15.366  0.00  0.00    +0.000 A 
ATOM     16  C   UNL     1      36.714  18.680  14.876  0.00  0.00    +0.000 A 
ATOM     17  C   UNL     1      36.192  18.741  13.605  0.00  0.00    +0.000 A 
ATOM     18  C   UNL     1      36.603  19.759  12.778  0.00  0.00    +0.000 A 
ATOM     19  C   UNL     1      37.502  20.669  13.225  0.00  0.00    +0.000 A 
ATOM     20  C   UNL     1      38.028  20.603  14.518  0.00  0.00    +0.000 A 
ENDBRANCH  13  18
ENDBRANCH   1  13
TORSDOF 3
ENDMDL
MODEL 4
REMARK VINA RESULT:      -6.3     21.163     22.877
REMARK  Name = 
REMARK  3 active torsions:
REMARK  status: ('A' for Active; 'I' for Inactive)
REMARK    1  A    between atoms: C_5  and  N_6
REMARK    2  A    between atoms: N_6  and  C_7
REMARK    3  A    between atoms: C_9  and  C_10
REMARK                            x       y       z     vdW  Elec       q    Type
REMARK                         _______ _______ _______ _____ _____    ______ ____
ROOT
ATOM      1  C   UNL     1      34.319  -3.296  34.742  0.00  0.00    +0.000 A 
ATOM      2  C   UNL     1      33.723  -2.205  34.234  0.00  0.00    +0.000 A 
ATOM      3  C   UNL     1      34.062  -0.998  34.699  0.00  0.00    +0.000 A 
ATOM      4  C   UNL     1      35.021  -0.982  35.696  0.00  0.00    +0.000 A 
ATOM      5  S   UNL     1      35.393  -2.619  35.907  0.00  0.00    +0.000 S 
ENDROOT
BRANCH   3   6
ATOM      6  C   UNL     1      33.456   0.292  34.148  0.00  0.00    +0.000 C 
ATOM      7  C   UNL     1      31.958   0.178  34.257  0.00  0.00    +0.000 C 
ATOM      8  C   UNL     1      33.937   0.565  32.745  0.00  0.00    +0.000 C 
ATOM      9  C   UNL     1      34.009   2.082  32.692  0.00  0.00    +0.000 C 
ATOM     10  C   UNL     1      33.794   2.522  34.094  0.00  0.00    +0.000 C 
ATOM     11  O   UNL     1      33.530   3.705  34.459  0.00  0.00    +0.000 OA
ATOM     12  O   UNL     1      33.943   1.375  34.898  0.00  0.00    +0.000 OA
ENDBRANCH   3   6
BRANCH   1  13
ATOM     13  N   UNL     1      34.162  -4.716  34.450  0.00  0.00    +0.000 NA
BRANCH  13  18
ATOM     14  C   UNL     1      34.464  -6.267  28.933  0.00  0.00    +0.000 C 
ATOM     15  C   UNL     1      34.363  -5.827  30.370  0.00  0.00    +0.000 A 
ATOM     16  C   UNL     1      35.412  -6.018  31.251  0.00  0.00    +0.000 A 
ATOM     17  C   UNL     1      35.365  -5.645  32.575  0.00  0.00    +0.000 A 
ATOM     18  C   UNL     1      34.216  -5.057  33.048  0.00  0.00    +0.000 A 
ATOM     19  C   UNL     1      33.167  -4.859  32.212  0.00  0.00    +0.000 A 
ATOM     20  C   UNL     1      33.221  -5.238  30.868  0.00  0.00    +0.000 A 
ENDBRANCH  13  18
ENDBRANCH   1  13
TORSDOF 3
ENDMDL
MODEL 5
REMARK VINA RESULT:      -6.1     22.975     25.634
REMARK  Name = 
REMARK  3 active torsions:
REMARK  status: ('A' for Active; 'I' for Inactive)
REMARK    1  A    between atoms: C_5  and  N_6
REMARK    2  A    between atoms: N_6  and  C_7
REMARK    3  A    between atoms: C_9  and  C_10
REMARK                            x       y       z     vdW  Elec       q    Type
REMARK                         _______ _______ _______ _____ _____    ______ ____
ROOT
ATOM      1  C   UNL     1      29.982  27.201  19.480  0.00  0.00    +0.000 A 
ATOM      2  C   UNL     1      29.559  26.295  20.376  0.00  0.00    +0.000 A 
ATOM      3  C   UNL     1      28.596  26.630  21.241  0.00  0.00    +0.000 A 
ATOM      4  C   UNL     1      28.111  27.921  21.136  0.00  0.00    +0.000 A 
ATOM      5  S   UNL     1      29.002  28.569  19.852  0.00  0.00    +0.000 S 
ENDROOT
BRANCH   3   6
ATOM      6  C   UNL     1      28.036  25.643  22.265  0.00  0.00    +0.000 C 
ATOM      7  C   UNL     1      27.415  26.445  23.380  0.00  0.00    +0.000 C 
ATOM      8  C   UNL     1      29.097  24.682  22.737  0.00  0.00    +0.000 C 
ATOM      9  C   UNL     1      28.323  23.396  22.972  0.00  0.00    +0.000 C 
ATOM     10  C   UNL     1      26.972  23.659  22.412  0.00  0.00    +0.000 C 
ATOM     11  O   UNL     1      25.942  22.951  22.617  0.00  0.00    +0.000 OA
ATOM     12  O   UNL     1      27.086  24.826  21.631  0.00  0.00    +0.000 OA
ENDBRANCH   3   6
BRANCH   1  13
ATOM     13  N   UNL     1      30.996  27.137  18.435  0.00  0.00    +0.000 NA
BRANCH  13  18
ATOM     14  C   UNL     1      29.950  30.117  13.643  0.00  0.00    +0.000 C 
ATOM     15  C   UNL     1      30.187  29.321  14.900  0.00  0.00    +0.000 A 
ATOM     16  C   UNL     1      30.989  29.809  15.916  0.00  0.00    +0.000 A 
ATOM     17  C   UNL     1      31.245  29.116  17.076  0.00  0.00    +0.000 A 
ATOM     18  C   UNL     1      30.679  27.874  17.234  0.00  0.00    +0.000 A 
ATOM     19  C   UNL     1      29.891  27.363  16.257  0.00  0.00    +0.000 A 
ATOM     20  C   UNL     1      29.632  28.072  15.080  0.00  0.00    +0.000 A 
ENDBRANCH  13  18
ENDBRANCH   1  13
TORSDOF 3
ENDMDL
MODEL 6
REMARK VINA RESULT:      -6.1     21.555     23.397
REMARK  Name = 
REMARK  3 active torsions:
REMARK  status: ('A' for Active; 'I' for Inactive)
REMARK    1  A    between atoms: C_5  and  N_6
REMARK    2  A    between atoms: N_6  and  C_7
REMARK    3  A    between atoms: C_9  and  C_10
REMARK                            x       y       z     vdW  Elec       q    Type
REMARK                         _______ _______ _______ _____ _____    ______ ____
ROOT
ATOM      1  C   UNL     1      33.130  -4.661  33.946  0.00  0.00    +0.000 A 
ATOM      2  C   UNL     1      33.027  -3.322  33.909  0.00  0.00    +0.000 A 
ATOM      3  C   UNL     1      33.874  -2.580  34.631  0.00  0.00    +0.000 A 
ATOM      4  C   UNL     1      34.805  -3.280  35.377  0.00  0.00    +0.000 A 
ATOM      5  S   UNL     1      34.456  -4.897  35.021  0.00  0.00    +0.000 S 
ENDROOT
BRANCH   3   6
ATOM      6  C   UNL     1      33.845  -1.052  34.613  0.00  0.00    +0.000 C 
ATOM      7  C   UNL     1      34.809  -0.564  35.663  0.00  0.00    +0.000 C 
ATOM      8  C   UNL     1      32.443  -0.530  34.797  0.00  0.00    +0.000 C 
ATOM      9  C   UNL     1      32.427   0.732  33.950  0.00  0.00    +0.000 C 
ATOM     10  C   UNL     1      33.707   0.698  33.196  0.00  0.00    +0.000 C 
ATOM     11  O   UNL     1      34.212   1.672  32.564  0.00  0.00    +0.000 OA
ATOM     12  O   UNL     1      34.214  -0.609  33.332  0.00  0.00    +0.000 OA
ENDBRANCH   3   6
BRANCH   1  13
ATOM     13  N   UNL     1      32.366  -5.713  33.289  0.00  0.00    +0.000 NA
BRANCH  13  18
ATOM     14  C   UNL     1      33.954  -6.658  27.855  0.00  0.00    +0.000 C 
ATOM     15  C   UNL     1      33.499  -6.411  29.270  0.00  0.00    +0.000 A 
ATOM     16  C   UNL     1      34.214  -5.585  30.117  0.00  0.00    +0.000 A 
ATOM     17  C   UNL     1      33.847  -5.337  31.419  0.00  0.00    +0.000 A 
ATOM     18  C   UNL     1      32.714  -5.943  31.906  0.00  0.00    +0.000 A 
ATOM     19  C   UNL     1      31.990  -6.762  31.103  0.00  0.00    +0.000 A 
ATOM     20  C   UNL     1      32.367  -7.009  29.780  0.00  0.00    +0.000 A 
ENDBRANCH  13  18
ENDBRANCH   1  13
TORSDOF 3
ENDMDL
MODEL 7
REMARK VINA RESULT:      -6.0      3.213      7.534
REMARK  Name = 
REMARK  3 active torsions:
REMARK  status: ('A' for Active; 'I' for Inactive)
REMARK    1  A    between atoms: C_5  and  N_6
REMARK    2  A    between atoms: N_6  and  C_7
REMARK    3  A    between atoms: C_9  and  C_10
REMARK                            x       y       z     vdW  Elec       q    Type
REMARK                         _______ _______ _______ _____ _____    ______ ____
ROOT
ATOM      1  C   UNL     1      17.068  10.208  35.287  0.00  0.00    +0.000 A 
ATOM      2  C   UNL     1      18.194  10.299  36.013  0.00  0.00    +0.000 A 
ATOM      3  C   UNL     1      18.165  10.938  37.187  0.00  0.00    +0.000 A 
ATOM      4  C   UNL     1      16.942  11.468  37.557  0.00  0.00    +0.000 A 
ATOM      5  S   UNL     1      15.926  11.039  36.274  0.00  0.00    +0.000 S 
ENDROOT
BRANCH   3   6
ATOM      6  C   UNL     1      19.394  11.052  38.089  0.00  0.00    +0.000 C 
ATOM      7  C   UNL     1      19.077  10.351  39.385  0.00  0.00    +0.000 C 
ATOM      8  C   UNL     1      19.807  12.490  38.270  0.00  0.00    +0.000 C 
ATOM      9  C   UNL     1      21.321  12.407  38.373  0.00  0.00    +0.000 C 
ATOM     10  C   UNL     1      21.648  11.001  38.021  0.00  0.00    +0.000 C 
ATOM     11  O   UNL     1      22.764  10.436  38.220  0.00  0.00    +0.000 OA
ATOM     12  O   UNL     1      20.487  10.456  37.438  0.00  0.00    +0.000 OA
ENDBRANCH   3   6
BRANCH   1  13
ATOM     13  N   UNL     1      16.791   9.592  33.995  0.00  0.00    +0.000 NA
BRANCH  13  18
ATOM     14  C   UNL     1      14.202  13.055  30.221  0.00  0.00    +0.000 C 
ATOM     15  C   UNL     1      14.917  12.157  31.196  0.00  0.00    +0.000 A 
ATOM     16  C   UNL     1      14.377  10.943  31.579  0.00  0.00    +0.000 A 
ATOM     17  C   UNL     1      14.985  10.093  32.474  0.00  0.00    +0.000 A 
ATOM     18  C   UNL     1      16.188  10.471  33.020  0.00  0.00    +0.000 A 
ATOM     19  C   UNL     1      16.745  11.656  32.669  0.00  0.00    +0.000 A 
ATOM     20  C   UNL     1      16.124  12.514  31.758  0.00  0.00    +0.000 A 
ENDBRANCH  13  18
ENDBRANCH   1  13
TORSDOF 3
ENDMDL
MODEL 8
REMARK VINA RESULT:      -6.0     18.352     20.547
REMARK  Name = 
REMARK  3 active torsions:
REMARK  status: ('A' for Active; 'I' for Inactive)
REMARK    1  A    between atoms: C_5  and  N_6
REMARK    2  A    between atoms: N_6  and  C_7
REMARK    3  A    between atoms: C_9  and  C_10
REMARK                            x       y       z     vdW  Elec       q    Type
REMARK                         _______ _______ _______ _____ _____    ______ ____
ROOT
ATOM      1  C   UNL     1      28.555  23.046  23.925  0.00  0.00    +0.000 A 
ATOM      2  C   UNL     1      27.844  23.164  25.058  0.00  0.00    +0.000 A 
ATOM      3  C   UNL     1      28.464  23.033  26.236  0.00  0.00    +0.000 A 
ATOM      4  C   UNL     1      29.821  22.774  26.179  0.00  0.00    +0.000 A 
ATOM      5  S   UNL     1      30.145  22.744  24.519  0.00  0.00    +0.000 S 
ENDROOT
BRANCH   3   6
ATOM      6  C   UNL     1      27.732  23.191  27.568  0.00  0.00    +0.000 C 
ATOM      7  C   UNL     1      26.325  23.641  27.268  0.00  0.00    +0.000 C 
ATOM      8  C   UNL     1      28.475  24.122  28.492  0.00  0.00    +0.000 C 
ATOM      9  C   UNL     1      28.200  23.540  29.869  0.00  0.00    +0.000 C 
ATOM     10  C   UNL     1      27.538  22.237  29.603  0.00  0.00    +0.000 C 
ATOM     11  O   UNL     1      26.919  21.540  30.461  0.00  0.00    +0.000 OA
ATOM     12  O   UNL     1      27.744  21.957  28.238  0.00  0.00    +0.000 OA
ENDBRANCH   3   6
BRANCH   1  13
ATOM     13  N   UNL     1      28.170  23.130  22.522  0.00  0.00    +0.000 NA
BRANCH  13  18
ATOM     14  C   UNL     1      28.583  28.442  20.390  0.00  0.00    +0.000 C 
ATOM     15  C   UNL     1      28.492  27.034  20.916  0.00  0.00    +0.000 A 
ATOM     16  C   UNL     1      27.414  26.625  21.680  0.00  0.00    +0.000 A 
ATOM     17  C   UNL     1      27.290  25.354  22.193  0.00  0.00    +0.000 A 
ATOM     18  C   UNL     1      28.289  24.446  21.937  0.00  0.00    +0.000 A 
ATOM     19  C   UNL     1      29.361  24.814  21.194  0.00  0.00    +0.000 A 
ATOM     20  C   UNL     1      29.481  26.106  20.674  0.00  0.00    +0.000 A 
ENDBRANCH  13  18
ENDBRANCH   1  13
TORSDOF 3
ENDMDL
MODEL 9
REMARK VINA RESULT:      -6.0     28.357     30.857
REMARK  Name = 
REMARK  3 active torsions:
REMARK  status: ('A' for Active; 'I' for Inactive)
REMARK    1  A    between atoms: C_5  and  N_6
REMARK    2  A    between atoms: N_6  and  C_7
REMARK    3  A    between atoms: C_9  and  C_10
REMARK                            x       y       z     vdW  Elec       q    Type
REMARK                         _______ _______ _______ _____ _____    ______ ____
ROOT
ATOM      1  C   UNL     1      32.360  21.298  10.943  0.00  0.00    +0.000 A 
ATOM      2  C   UNL     1      32.442  20.494   9.870  0.00  0.00    +0.000 A 
ATOM      3  C   UNL     1      33.217  20.852   8.842  0.00  0.00    +0.000 A 
ATOM      4  C   UNL     1      33.881  22.059   8.977  0.00  0.00    +0.000 A 
ATOM      5  S   UNL     1      33.402  22.600  10.507  0.00  0.00    +0.000 S 
ENDROOT
BRANCH   3   6
ATOM      6  C   UNL     1      33.393  19.975   7.603  0.00  0.00    +0.000 C 
ATOM      7  C   UNL     1      34.514  20.560   6.783  0.00  0.00    +0.000 C 
ATOM      8  C   UNL     1      32.099  19.840   6.841  0.00  0.00    +0.000 C 
ATOM      9  C   UNL     1      32.170  18.429   6.282  0.00  0.00    +0.000 C 
ATOM     10  C   UNL     1      33.351  17.818   6.943  0.00  0.00    +0.000 C 
ATOM     11  O   UNL     1      33.918  16.743   6.585  0.00  0.00    +0.000 OA
ATOM     12  O   UNL     1      33.689  18.665   8.016  0.00  0.00    +0.000 OA
ENDBRANCH   3   6
BRANCH   1  13
ATOM     13  N   UNL     1      31.611  21.185  12.188  0.00  0.00    +0.000 NA
BRANCH  13  18
ATOM     14  C   UNL     1      26.530  23.852  12.170  0.00  0.00    +0.000 C 
ATOM     15  C   UNL     1      27.846  23.119  12.161  0.00  0.00    +0.000 A 
ATOM     16  C   UNL     1      28.803  23.356  13.131  0.00  0.00    +0.000 A 
ATOM     17  C   UNL     1      30.023  22.721  13.160  0.00  0.00    +0.000 A 
ATOM     18  C   UNL     1      30.308  21.808  12.174  0.00  0.00    +0.000 A 
ATOM     19  C   UNL     1      29.394  21.554  11.206  0.00  0.00    +0.000 A 
ATOM     20  C   UNL     1      28.156  22.200  11.182  0.00  0.00    +0.000 A 
ENDBRANCH  13  18
ENDBRANCH   1  13
TORSDOF 3
ENDMDL
MODEL 10
REMARK VINA RESULT:      -5.9      3.126      4.845
REMARK  Name = 
REMARK  3 active torsions:
REMARK  status: ('A' for Active; 'I' for Inactive)
REMARK    1  A    between atoms: C_5  and  N_6
REMARK    2  A    between atoms: N_6  and  C_7
REMARK    3  A    between atoms: C_9  and  C_10
REMARK                            x       y       z     vdW  Elec       q    Type
REMARK                         _______ _______ _______ _____ _____    ______ ____
ROOT
ATOM      1  C   UNL     1      19.855   9.821  37.330  0.00  0.00    +0.000 A 
ATOM      2  C   UNL     1      18.911  10.630  36.819  0.00  0.00    +0.000 A 
ATOM      3  C   UNL     1      17.736  10.741  37.446  0.00  0.00    +0.000 A 
ATOM      4  C   UNL     1      17.590   9.985  38.596  0.00  0.00    +0.000 A 
ATOM      5  S   UNL     1      19.079   9.194  38.735  0.00  0.00    +0.000 S 
ENDROOT
BRANCH   3   6
ATOM      6  C   UNL     1      16.627  11.668  36.949  0.00  0.00    +0.000 C 
ATOM      7  C   UNL     1      17.097  13.087  37.140  0.00  0.00    +0.000 C 
ATOM      8  C   UNL     1      15.318  11.371  37.637  0.00  0.00    +0.000 C 
ATOM      9  C   UNL     1      14.286  11.655  36.558  0.00  0.00    +0.000 C 
ATOM     10  C   UNL     1      15.080  11.859  35.319  0.00  0.00    +0.000 C 
ATOM     11  O   UNL     1      14.642  12.360  34.241  0.00  0.00    +0.000 OA
ATOM     12  O   UNL     1      16.378  11.388  35.596  0.00  0.00    +0.000 OA
ENDBRANCH   3   6
BRANCH   1  13
ATOM     13  N   UNL     1      21.203   9.495  36.882  0.00  0.00    +0.000 NA
BRANCH  13  18
ATOM     14  C   UNL     1      25.199  13.495  37.862  0.00  0.00    +0.000 C 
ATOM     15  C   UNL     1      24.142  12.445  37.644  0.00  0.00    +0.000 A 
ATOM     16  C   UNL     1      24.310  11.445  36.704  0.00  0.00    +0.000 A 
ATOM     17  C   UNL     1      23.370  10.471  36.459  0.00  0.00    +0.000 A 
ATOM     18  C   UNL     1      22.202  10.494  37.183  0.00  0.00    +0.000 A 
ATOM     19  C   UNL     1      22.002  11.462  38.110  0.00  0.00    +0.000 A 
ATOM     20  C   UNL     1      22.961  12.448  38.356  0.00  0.00    +0.000 A 
ENDBRANCH  13  18
ENDBRANCH   1  13
TORSDOF 3
ENDMDL
