MODEL 1
REMARK VINA RESULT:      -6.3      0.000      0.000
REMARK  Name = 
REMARK  3 active torsions:
REMARK  status: ('A' for Active; 'I' for Inactive)
REMARK    1  A    between atoms: O_2  and  C_3
REMARK    2  A    between atoms: C_6  and  C_7
REMARK    3  A    between atoms: N_11  and  C_12
REMARK                            x       y       z     vdW  Elec       q    Type
REMARK                         _______ _______ _______ _____ _____    ______ ____
ROOT
ATOM      1  C   UNL     1      16.737  10.628  36.167  0.00  0.00    +0.000 C 
ATOM      2  C   UNL     1      17.948  10.141  36.225  0.00  0.00    +0.000 C 
ATOM      3  S   UNL     1      18.611   9.551  37.747  0.00  0.00    +0.000 S 
ATOM      4  C   UNL     1      17.323   9.793  38.960  0.00  0.00    +0.000 C 
ATOM      5  N   UNL     1      17.492   9.433  40.308  0.00  0.00    +0.000 NA
ATOM      6  N   UNL     1      16.221  10.311  38.560  0.00  0.00    +0.000 NA
ATOM      7  N   UNL     1      15.914  10.707  37.292  0.00  0.00    +0.000 NA
ENDROOT
BRANCH   1  11
ATOM      8  C   UNL     1      15.323  11.988  32.381  0.00  0.00    +0.000 A 
ATOM      9  C   UNL     1      14.781  12.460  33.552  0.00  0.00    +0.000 A 
ATOM     10  C   UNL     1      15.225  12.033  34.776  0.00  0.00    +0.000 A 
ATOM     11  C   UNL     1      16.232  11.113  34.844  0.00  0.00    +0.000 A 
ATOM     12  C   UNL     1      16.787  10.628  33.690  0.00  0.00    +0.000 A 
ATOM     13  C   UNL     1      16.349  11.051  32.452  0.00  0.00    +0.000 A 
BRANCH   8  15
ATOM     14  C   UNL     1      13.985  13.508  30.990  0.00  0.00    +0.000 C 
ATOM     15  O   UNL     1      14.860  12.432  31.151  0.00  0.00    +0.000 OA
ENDBRANCH   8  15
ENDBRANCH   1  11
BRANCH   5  16
ATOM     16  C   UNL     1      16.430   9.569  41.307  0.00  0.00    +0.000 C 
ATOM     17  C   UNL     1      17.130   9.805  42.649  0.00  0.00    +0.000 C 
ATOM     18  C   UNL     1      15.617   8.321  41.392  0.00  0.00    +0.000 C 
ENDBRANCH   5  16
TORSDOF 3
ENDMDL
MODEL 2
REMARK VINA RESULT:      -6.2      3.662      7.813
REMARK  Name = 
REMARK  3 active torsions:
REMARK  status: ('A' for Active; 'I' for Inactive)
REMARK    1  A    between atoms: O_2  and  C_3
REMARK    2  A    between atoms: C_6  and  C_7
REMARK    3  A    between atoms: N_11  and  C_12
REMARK                            x       y       z     vdW  Elec       q    Type
REMARK                         _______ _______ _______ _____ _____    ______ ____
ROOT
ATOM      1  C   UNL     1      16.374  11.043  36.323  0.00  0.00    +0.000 C 
ATOM      2  C   UNL     1      15.378  11.831  36.630  0.00  0.00    +0.000 C 
ATOM      3  S   UNL     1      14.485  12.686  35.374  0.00  0.00    +0.000 S 
ATOM      4  C   UNL     1      15.248  12.210  33.831  0.00  0.00    +0.000 C 
ATOM      5  N   UNL     1      14.797  12.700  32.594  0.00  0.00    +0.000 NA
ATOM      6  N   UNL     1      16.236  11.395  33.884  0.00  0.00    +0.000 NA
ATOM      7  N   UNL     1      16.781  10.839  35.004  0.00  0.00    +0.000 NA
ENDROOT
BRANCH   1  11
ATOM      8  C   UNL     1      18.392   9.065  39.518  0.00  0.00    +0.000 A 
ATOM      9  C   UNL     1      18.941   9.124  38.259  0.00  0.00    +0.000 A 
ATOM     10  C   UNL     1      18.305   9.755  37.223  0.00  0.00    +0.000 A 
ATOM     11  C   UNL     1      17.092  10.345  37.437  0.00  0.00    +0.000 A 
ATOM     12  C   UNL     1      16.525  10.301  38.682  0.00  0.00    +0.000 A 
ATOM     13  C   UNL     1      17.156   9.667  39.733  0.00  0.00    +0.000 A 
BRANCH   8  15
ATOM     14  C   UNL     1      19.220   7.036  40.628  0.00  0.00    +0.000 C 
ATOM     15  O   UNL     1      19.050   8.421  40.553  0.00  0.00    +0.000 OA
ENDBRANCH   8  15
ENDBRANCH   1  11
BRANCH   5  16
ATOM     16  C   UNL     1      15.370  12.280  31.314  0.00  0.00    +0.000 C 
ATOM     17  C   UNL     1      15.630  13.563  30.518  0.00  0.00    +0.000 C 
ATOM     18  C   UNL     1      14.413  11.421  30.559  0.00  0.00    +0.000 C 
ENDBRANCH   5  16
TORSDOF 3
ENDMDL
MODEL 3
REMARK VINA RESULT:      -6.1     19.804     21.334
REMARK  Name = 
REMARK  3 active torsions:
REMARK  status: ('A' for Active; 'I' for Inactive)
REMARK    1  A    between atoms: O_2  and  C_3
REMARK    2  A    between atoms: C_6  and  C_7
REMARK    3  A    between atoms: N_11  and  C_12
REMARK                            x       y       z     vdW  Elec       q    Type
REMARK                         _______ _______ _______ _____ _____    ______ ____
ROOT
ATOM      1  C   UNL     1      33.282  -0.107  34.377  0.00  0.00    +0.000 C 
ATOM      2  C   UNL     1      32.411  -0.649  35.185  0.00  0.00    +0.000 C 
ATOM      3  S   UNL     1      32.069  -2.376  35.117  0.00  0.00    +0.000 S 
ATOM      4  C   UNL     1      33.112  -3.022  33.820  0.00  0.00    +0.000 C 
ATOM      5  N   UNL     1      33.114  -4.384  33.474  0.00  0.00    +0.000 NA
ATOM      6  N   UNL     1      33.874  -2.196  33.204  0.00  0.00    +0.000 NA
ATOM      7  N   UNL     1      33.980  -0.855  33.428  0.00  0.00    +0.000 NA
ENDROOT
BRANCH   1  11
ATOM      8  C   UNL     1      33.973   4.093  34.651  0.00  0.00    +0.000 A 
ATOM      9  C   UNL     1      34.071   3.283  35.757  0.00  0.00    +0.000 A 
ATOM     10  C   UNL     1      33.852   1.933  35.685  0.00  0.00    +0.000 A 
ATOM     11  C   UNL     1      33.527   1.367  34.486  0.00  0.00    +0.000 A 
ATOM     12  C   UNL     1      33.424   2.152  33.369  0.00  0.00    +0.000 A 
ATOM     13  C   UNL     1      33.642   3.513  33.429  0.00  0.00    +0.000 A 
BRANCH   8  15
ATOM     14  C   UNL     1      35.442   6.025  35.027  0.00  0.00    +0.000 C 
ATOM     15  O   UNL     1      34.198   5.457  34.743  0.00  0.00    +0.000 OA
ENDBRANCH   8  15
ENDBRANCH   1  11
BRANCH   5  16
ATOM     16  C   UNL     1      34.002  -4.946  32.453  0.00  0.00    +0.000 C 
ATOM     17  C   UNL     1      33.113  -5.297  31.256  0.00  0.00    +0.000 C 
ATOM     18  C   UNL     1      34.666  -6.186  32.950  0.00  0.00    +0.000 C 
ENDBRANCH   5  16
TORSDOF 3
ENDMDL
MODEL 4
REMARK VINA RESULT:      -5.8      8.538     10.992
REMARK  Name = 
REMARK  3 active torsions:
REMARK  status: ('A' for Active; 'I' for Inactive)
REMARK    1  A    between atoms: O_2  and  C_3
REMARK    2  A    between atoms: C_6  and  C_7
REMARK    3  A    between atoms: N_11  and  C_12
REMARK                            x       y       z     vdW  Elec       q    Type
REMARK                         _______ _______ _______ _____ _____    ______ ____
ROOT
ATOM      1  C   UNL     1      20.543   3.206  41.122  0.00  0.00    +0.000 C 
ATOM      2  C   UNL     1      21.677   3.478  41.709  0.00  0.00    +0.000 C 
ATOM      3  S   UNL     1      22.957   2.270  41.805  0.00  0.00    +0.000 S 
ATOM      4  C   UNL     1      22.312   0.820  40.987  0.00  0.00    +0.000 C 
ATOM      5  N   UNL     1      23.062  -0.362  40.865  0.00  0.00    +0.000 NA
ATOM      6  N   UNL     1      21.126   0.888  40.505  0.00  0.00    +0.000 NA
ATOM      7  N   UNL     1      20.285   1.960  40.547  0.00  0.00    +0.000 NA
ENDROOT
BRANCH   1  11
ATOM      8  C   UNL     1      17.545   6.237  41.015  0.00  0.00    +0.000 A 
ATOM      9  C   UNL     1      18.561   6.210  40.090  0.00  0.00    +0.000 A 
ATOM     10  C   UNL     1      19.531   5.243  40.111  0.00  0.00    +0.000 A 
ATOM     11  C   UNL     1      19.496   4.276  41.075  0.00  0.00    +0.000 A 
ATOM     12  C   UNL     1      18.494   4.281  42.007  0.00  0.00    +0.000 A 
ATOM     13  C   UNL     1      17.511   5.250  41.996  0.00  0.00    +0.000 A 
BRANCH   8  15
ATOM     14  C   UNL     1      16.083   7.880  42.110  0.00  0.00    +0.000 C 
ATOM     15  O   UNL     1      16.573   7.224  40.978  0.00  0.00    +0.000 OA
ENDBRANCH   8  15
ENDBRANCH   1  11
BRANCH   5  16
ATOM     16  C   UNL     1      22.576  -1.543  40.149  0.00  0.00    +0.000 C 
ATOM     17  C   UNL     1      22.286  -2.603  41.216  0.00  0.00    +0.000 C 
ATOM     18  C   UNL     1      23.614  -2.063  39.212  0.00  0.00    +0.000 C 
ENDBRANCH   5  16
TORSDOF 3
ENDMDL
MODEL 5
REMARK VINA RESULT:      -5.6      2.849      3.555
REMARK  Name = 
REMARK  3 active torsions:
REMARK  status: ('A' for Active; 'I' for Inactive)
REMARK    1  A    between atoms: O_2  and  C_3
REMARK    2  A    between atoms: C_6  and  C_7
REMARK    3  A    between atoms: N_11  and  C_12
REMARK                            x       y       z     vdW  Elec       q    Type
REMARK                         _______ _______ _______ _____ _____    ______ ____
ROOT
ATOM      1  C   UNL     1      17.807  10.327  36.724  0.00  0.00    +0.000 C 
ATOM      2  C   UNL     1      17.190  10.232  37.871  0.00  0.00    +0.000 C 
ATOM      3  S   UNL     1      18.064   9.764  39.328  0.00  0.00    +0.000 S 
ATOM      4  C   UNL     1      19.755   9.509  38.816  0.00  0.00    +0.000 C 
ATOM      5  N   UNL     1      20.758   9.122  39.721  0.00  0.00    +0.000 NA
ATOM      6  N   UNL     1      20.034   9.693  37.578  0.00  0.00    +0.000 NA
ATOM      7  N   UNL     1      19.172  10.067  36.590  0.00  0.00    +0.000 NA
ENDROOT
BRANCH   1  11
ATOM      8  C   UNL     1      15.508  11.491  33.326  0.00  0.00    +0.000 A 
ATOM      9  C   UNL     1      16.646  10.734  33.187  0.00  0.00    +0.000 A 
ATOM     10  C   UNL     1      17.395  10.352  34.269  0.00  0.00    +0.000 A 
ATOM     11  C   UNL     1      17.008  10.730  35.523  0.00  0.00    +0.000 A 
ATOM     12  C   UNL     1      15.878  11.485  35.686  0.00  0.00    +0.000 A 
ATOM     13  C   UNL     1      15.115  11.875  34.604  0.00  0.00    +0.000 A 
BRANCH   8  15
ATOM     14  C   UNL     1      14.735  11.155  31.018  0.00  0.00    +0.000 C 
ATOM     15  O   UNL     1      14.763  11.869  32.219  0.00  0.00    +0.000 OA
ENDBRANCH   8  15
ENDBRANCH   1  11
BRANCH   5  16
ATOM     16  C   UNL     1      22.161   8.963  39.334  0.00  0.00    +0.000 C 
ATOM     17  C   UNL     1      22.712   7.809  40.178  0.00  0.00    +0.000 C 
ATOM     18  C   UNL     1      22.939  10.201  39.632  0.00  0.00    +0.000 C 
ENDBRANCH   5  16
TORSDOF 3
ENDMDL
MODEL 6
REMARK VINA RESULT:      -5.6     19.335     21.140
REMARK  Name = 
REMARK  3 active torsions:
REMARK  status: ('A' for Active; 'I' for Inactive)
REMARK    1  A    between atoms: O_2  and  C_3
REMARK    2  A    between atoms: C_6  and  C_7
REMARK    3  A    between atoms: N_11  and  C_12
REMARK                            x       y       z     vdW  Elec       q    Type
REMARK                         _______ _______ _______ _____ _____    ______ ____
ROOT
ATOM      1  C   UNL     1      33.421  -0.359  35.110  0.00  0.00    +0.000 C 
ATOM      2  C   UNL     1      33.626  -0.151  36.383  0.00  0.00    +0.000 C 
ATOM      3  S   UNL     1      33.978   1.467  36.987  0.00  0.00    +0.000 S 
ATOM      4  C   UNL     1      33.965   2.530  35.553  0.00  0.00    +0.000 C 
ATOM      5  N   UNL     1      34.207   3.911  35.647  0.00  0.00    +0.000 NA
ATOM      6  N   UNL     1      33.722   1.990  34.416  0.00  0.00    +0.000 NA
ATOM      7  N   UNL     1      33.469   0.673  34.171  0.00  0.00    +0.000 NA
ENDROOT
BRANCH   1  11
ATOM      8  C   UNL     1      32.605  -4.335  33.801  0.00  0.00    +0.000 A 
ATOM      9  C   UNL     1      32.025  -3.829  34.940  0.00  0.00    +0.000 A 
ATOM     10  C   UNL     1      32.277  -2.555  35.373  0.00  0.00    +0.000 A 
ATOM     11  C   UNL     1      33.127  -1.758  34.661  0.00  0.00    +0.000 A 
ATOM     12  C   UNL     1      33.717  -2.239  33.523  0.00  0.00    +0.000 A 
ATOM     13  C   UNL     1      33.470  -3.521  33.077  0.00  0.00    +0.000 A 
BRANCH   8  15
ATOM     14  C   UNL     1      31.058  -6.184  33.332  0.00  0.00    +0.000 C 
ATOM     15  O   UNL     1      32.338  -5.629  33.379  0.00  0.00    +0.000 OA
ENDBRANCH   8  15
ENDBRANCH   1  11
BRANCH   5  16
ATOM     16  C   UNL     1      34.145   4.810  34.493  0.00  0.00    +0.000 C 
ATOM     17  C   UNL     1      35.189   5.904  34.743  0.00  0.00    +0.000 C 
ATOM     18  C   UNL     1      32.796   5.438  34.380  0.00  0.00    +0.000 C 
ENDBRANCH   5  16
TORSDOF 3
ENDMDL
MODEL 7
REMARK VINA RESULT:      -5.6     19.209     20.774
REMARK  Name = 
REMARK  3 active torsions:
REMARK  status: ('A' for Active; 'I' for Inactive)
REMARK    1  A    between atoms: O_2  and  C_3
REMARK    2  A    between atoms: C_6  and  C_7
REMARK    3  A    between atoms: N_11  and  C_12
REMARK                            x       y       z     vdW  Elec       q    Type
REMARK                         _______ _______ _______ _____ _____    ______ ____
ROOT
ATOM      1  C   UNL     1      33.456   1.002  34.564  0.00  0.00    +0.000 C 
ATOM      2  C   UNL     1      33.316   1.728  33.488  0.00  0.00    +0.000 C 
ATOM      3  S   UNL     1      33.624   3.463  33.524  0.00  0.00    +0.000 S 
ATOM      4  C   UNL     1      34.101   3.833  35.204  0.00  0.00    +0.000 C 
ATOM      5  N   UNL     1      34.428   5.136  35.616  0.00  0.00    +0.000 NA
ATOM      6  N   UNL     1      34.140   2.860  36.038  0.00  0.00    +0.000 NA
ATOM      7  N   UNL     1      33.851   1.552  35.785  0.00  0.00    +0.000 NA
ENDROOT
BRANCH   1  11
ATOM      8  C   UNL     1      32.644  -3.178  34.316  0.00  0.00    +0.000 A 
ATOM      9  C   UNL     1      33.567  -2.583  33.490  0.00  0.00    +0.000 A 
ATOM     10  C   UNL     1      33.839  -1.243  33.557  0.00  0.00    +0.000 A 
ATOM     11  C   UNL     1      33.179  -0.467  34.467  0.00  0.00    +0.000 A 
ATOM     12  C   UNL     1      32.255  -1.036  35.302  0.00  0.00    +0.000 A 
ATOM     13  C   UNL     1      31.973  -2.385  35.243  0.00  0.00    +0.000 A 
BRANCH   8  15
ATOM     14  C   UNL     1      32.805  -5.348  33.178  0.00  0.00    +0.000 C 
ATOM     15  O   UNL     1      32.382  -4.536  34.233  0.00  0.00    +0.000 OA
ENDBRANCH   8  15
ENDBRANCH   1  11
BRANCH   5  16
ATOM     16  C   UNL     1      34.878   5.452  36.973  0.00  0.00    +0.000 C 
ATOM     17  C   UNL     1      34.196   6.770  37.355  0.00  0.00    +0.000 C 
ATOM     18  C   UNL     1      36.357   5.637  37.014  0.00  0.00    +0.000 C 
ENDBRANCH   5  16
TORSDOF 3
ENDMDL
MODEL 8
REMARK VINA RESULT:      -5.5     22.953     25.749
REMARK  Name = 
REMARK  3 active torsions:
REMARK  status: ('A' for Active; 'I' for Inactive)
REMARK    1  A    between atoms: O_2  and  C_3
REMARK    2  A    between atoms: C_6  and  C_7
REMARK    3  A    between atoms: N_11  and  C_12
REMARK                            x       y       z     vdW  Elec       q    Type
REMARK                         _______ _______ _______ _____ _____    ______ ____
ROOT
ATOM      1  C   UNL     1      29.174  25.746  21.765  0.00  0.00    +0.000 C 
ATOM      2  C   UNL     1      28.931  27.013  21.966  0.00  0.00    +0.000 C 
ATOM      3  S   UNL     1      29.171  28.193  20.679  0.00  0.00    +0.000 S 
ATOM      4  C   UNL     1      29.749  27.259  19.271  0.00  0.00    +0.000 C 
ATOM      5  N   UNL     1      30.049  27.872  18.043  0.00  0.00    +0.000 NA
ATOM      6  N   UNL     1      29.883  25.993  19.414  0.00  0.00    +0.000 NA
ATOM      7  N   UNL     1      29.632  25.263  20.538  0.00  0.00    +0.000 NA
ENDROOT
BRANCH   1  11
ATOM      8  C   UNL     1      28.503  23.049  25.000  0.00  0.00    +0.000 A 
ATOM      9  C   UNL     1      29.710  23.085  24.344  0.00  0.00    +0.000 A 
ATOM     10  C   UNL     1      29.941  23.946  23.304  0.00  0.00    +0.000 A 
ATOM     11  C   UNL     1      28.951  24.794  22.900  0.00  0.00    +0.000 A 
ATOM     12  C   UNL     1      27.739  24.777  23.537  0.00  0.00    +0.000 A 
ATOM     13  C   UNL     1      27.495  23.915  24.586  0.00  0.00    +0.000 A 
BRANCH   8  15
ATOM     14  C   UNL     1      28.779  22.366  27.343  0.00  0.00    +0.000 C 
ATOM     15  O   UNL     1      28.288  22.171  26.050  0.00  0.00    +0.000 OA
ENDBRANCH   8  15
ENDBRANCH   1  11
BRANCH   5  16
ATOM     16  C   UNL     1      30.470  27.119  16.859  0.00  0.00    +0.000 C 
ATOM     17  C   UNL     1      31.557  27.958  16.180  0.00  0.00    +0.000 C 
ATOM     18  C   UNL     1      29.331  26.937  15.913  0.00  0.00    +0.000 C 
ENDBRANCH   5  16
TORSDOF 3
ENDMDL
MODEL 9
REMARK VINA RESULT:      -5.4     18.978     20.019
REMARK  Name = 
REMARK  3 active torsions:
REMARK  status: ('A' for Active; 'I' for Inactive)
REMARK    1  A    between atoms: O_2  and  C_3
REMARK    2  A    between atoms: C_6  and  C_7
REMARK    3  A    between atoms: N_11  and  C_12
REMARK                            x       y       z     vdW  Elec       q    Type
REMARK                         _______ _______ _______ _____ _____    ______ ____
ROOT
ATOM      1  C   UNL     1      34.436   5.612  35.799  0.00  0.00    +0.000 C 
ATOM      2  C   UNL     1      33.858   5.960  36.917  0.00  0.00    +0.000 C 
ATOM      3  S   UNL     1      34.201   7.520  37.663  0.00  0.00    +0.000 S 
ATOM      4  C   UNL     1      35.380   8.320  36.586  0.00  0.00    +0.000 C 
ATOM      5  N   UNL     1      35.891   9.599  36.861  0.00  0.00    +0.000 NA
ATOM      6  N   UNL     1      35.752   7.684  35.537  0.00  0.00    +0.000 NA
ATOM      7  N   UNL     1      35.345   6.444  35.143  0.00  0.00    +0.000 NA
ENDROOT
BRANCH   1  11
ATOM      8  C   UNL     1      33.492   1.784  34.174  0.00  0.00    +0.000 A 
ATOM      9  C   UNL     1      33.451   2.916  33.396  0.00  0.00    +0.000 A 
ATOM     10  C   UNL     1      33.752   4.152  33.903  0.00  0.00    +0.000 A 
ATOM     11  C   UNL     1      34.102   4.273  35.217  0.00  0.00    +0.000 A 
ATOM     12  C   UNL     1      34.150   3.160  36.013  0.00  0.00    +0.000 A 
ATOM     13  C   UNL     1      33.850   1.910  35.513  0.00  0.00    +0.000 A 
BRANCH   8  15
ATOM     14  C   UNL     1      34.137  -0.354  33.151  0.00  0.00    +0.000 C 
ATOM     15  O   UNL     1      33.184   0.541  33.643  0.00  0.00    +0.000 OA
ENDBRANCH   8  15
ENDBRANCH   1  11
BRANCH   5  16
ATOM     16  C   UNL     1      36.815  10.297  35.964  0.00  0.00    +0.000 C 
ATOM     17  C   UNL     1      37.866  10.960  36.860  0.00  0.00    +0.000 C 
ATOM     18  C   UNL     1      36.103  11.350  35.183  0.00  0.00    +0.000 C 
ENDBRANCH   5  16
TORSDOF 3
ENDMDL
MODEL 10
REMARK VINA RESULT:      -5.3     19.927     20.776
REMARK  Name = 
REMARK  3 active torsions:
REMARK  status: ('A' for Active; 'I' for Inactive)
REMARK    1  A    between atoms: O_2  and  C_3
REMARK    2  A    between atoms: C_6  and  C_7
REMARK    3  A    between atoms: N_11  and  C_12
REMARK                            x       y       z     vdW  Elec       q    Type
REMARK                         _______ _______ _______ _____ _____    ______ ____
ROOT
ATOM      1  C   UNL     1      30.380  22.543  27.927  0.00  0.00    +0.000 C 
ATOM      2  C   UNL     1      29.637  22.785  28.974  0.00  0.00    +0.000 C 
ATOM      3  S   UNL     1      30.301  22.647  30.601  0.00  0.00    +0.000 S 
ATOM      4  C   UNL     1      32.005  22.160  30.387  0.00  0.00    +0.000 C 
ATOM      5  N   UNL     1      32.863  21.953  31.480  0.00  0.00    +0.000 NA
ATOM      6  N   UNL     1      32.432  22.004  29.188  0.00  0.00    +0.000 NA
ATOM      7  N   UNL     1      31.720  22.168  28.037  0.00  0.00    +0.000 NA
ENDROOT
BRANCH   1  11
ATOM      8  C   UNL     1      28.572  22.928  24.084  0.00  0.00    +0.000 A 
ATOM      9  C   UNL     1      29.928  22.751  24.216  0.00  0.00    +0.000 A 
ATOM     10  C   UNL     1      30.523  22.625  25.443  0.00  0.00    +0.000 A 
ATOM     11  C   UNL     1      29.756  22.678  26.572  0.00  0.00    +0.000 A 
ATOM     12  C   UNL     1      28.403  22.854  26.466  0.00  0.00    +0.000 A 
ATOM     13  C   UNL     1      27.792  22.981  25.235  0.00  0.00    +0.000 A 
BRANCH   8  15
ATOM     14  C   UNL     1      28.347  24.028  21.899  0.00  0.00    +0.000 C 
ATOM     15  O   UNL     1      27.987  23.054  22.833  0.00  0.00    +0.000 OA
ENDBRANCH   8  15
ENDBRANCH   1  11
BRANCH   5  16
ATOM     16  C   UNL     1      34.279  21.609  31.326  0.00  0.00    +0.000 C 
ATOM     17  C   UNL     1      34.592  20.580  32.417  0.00  0.00    +0.000 C 
ATOM     18  C   UNL     1      35.142  22.809  31.524  0.00  0.00    +0.000 C 
ENDBRANCH   5  16
TORSDOF 3
ENDMDL
