MODEL 1
REMARK VINA RESULT:      -8.1      0.000      0.000
REMARK  Name = 
REMARK  7 active torsions:
REMARK  status: ('A' for Active; 'I' for Inactive)
REMARK    1  A    between atoms: C_2  and  C_3
REMARK    2  A    between atoms: C_3  and  C_5
REMARK    3  A    between atoms: C_5  and  O_6
REMARK    4  A    between atoms: O_6  and  C_7
REMARK    5  A    between atoms: C_7  and  C_9
REMARK    6  A    between atoms: N_12  and  C_13
REMARK    7  A    between atoms: C_13  and  C_15
REMARK                            x       y       z     vdW  Elec       q    Type
REMARK                         _______ _______ _______ _____ _____    ______ ____
ROOT
ATOM      1  C   UNL     1      36.737   1.794  15.770  0.00  0.00    +0.000 A 
ATOM      2  C   UNL     1      35.782   0.895  16.276  0.00  0.00    +0.000 A 
ATOM      3  N   UNL     1      34.552   1.405  16.767  0.00  0.00    +0.000 NA
ATOM      4  N   UNL     1      36.249  -0.344  16.191  0.00  0.00    +0.000 N 
ATOM      5  C   UNL     1      37.456  -0.273  15.654  0.00  0.00    +0.000 A 
ATOM      6  N   UNL     1      38.331  -1.229  15.361  0.00  0.00    +0.000 NA
ATOM      7  C   UNL     1      39.526  -0.965  14.810  0.00  0.00    +0.000 A 
ATOM      8  C   UNL     1      40.429  -1.980  14.512  0.00  0.00    +0.000 A 
ATOM      9  C   UNL     1      41.645  -1.666  13.947  0.00  0.00    +0.000 A 
ATOM     10  C   UNL     1      41.978  -0.352  13.673  0.00  0.00    +0.000 A 
ATOM     11  C   UNL     1      41.083   0.648  13.969  0.00  0.00    +0.000 A 
ATOM     12  C   UNL     1      39.865   0.335  14.535  0.00  0.00    +0.000 A 
ATOM     13  N   UNL     1      38.992   1.315  14.824  0.00  0.00    +0.000 NA
ATOM     14  C   UNL     1      37.806   1.027  15.374  0.00  0.00    +0.000 A 
ENDROOT
BRANCH   1  15
ATOM     15  C   UNL     1      36.655   3.235  15.666  0.00  0.00    +0.000 C 
ATOM     16  O   UNL     1      35.838   3.768  14.893  0.00  0.00    +0.000 OA
BRANCH  15  17
ATOM     17  O   UNL     1      37.482   4.003  16.421  0.00  0.00    +0.000 OA
BRANCH  17  18
ATOM     18  C   UNL     1      38.668   4.617  16.192  0.00  0.00    +0.000 C 
BRANCH  18  19
ATOM     19  C   UNL     1      38.715   5.960  17.106  0.00  0.00    +0.000 C 
ATOM     20  C   UNL     1      40.368   6.125  16.954  0.00  0.00    +0.000 C 
BRANCH  19  22
ATOM     21  C   UNL     1      39.670   6.128  19.353  0.00  0.00    +0.000 C 
ATOM     22  C   UNL     1      38.944   5.089  18.521  0.00  0.00    +0.000 C 
ENDBRANCH  19  22
ENDBRANCH  18  19
ENDBRANCH  17  18
ENDBRANCH  15  17
ENDBRANCH   1  15
BRANCH   4  23
ATOM     23  C   UNL     1      35.484  -1.582  16.645  0.00  0.00    +0.000 C 
ATOM     24  C   UNL     1      35.746  -2.536  15.325  0.00  0.00    +0.000 C 
BRANCH  23  25
ATOM     25  C   UNL     1      36.596  -2.245  17.558  0.00  0.00    +0.000 A 
ATOM     26  C   UNL     1      36.914  -1.657  18.738  0.00  0.00    +0.000 A 
ATOM     27  C   UNL     1      37.865  -2.150  19.577  0.00  0.00    +0.000 A 
ATOM     28  C   UNL     1      38.523  -3.301  19.189  0.00  0.00    +0.000 A 
ATOM     29  C   UNL     1      38.225  -3.912  18.013  0.00  0.00    +0.000 A 
ATOM     30  C   UNL     1      37.242  -3.365  17.190  0.00  0.00    +0.000 A 
ENDBRANCH  23  25
ENDBRANCH   4  23
TORSDOF 7
ENDMDL
MODEL 2
REMARK VINA RESULT:      -7.7      2.212      6.326
REMARK  Name = 
REMARK  7 active torsions:
REMARK  status: ('A' for Active; 'I' for Inactive)
REMARK    1  A    between atoms: C_2  and  C_3
REMARK    2  A    between atoms: C_3  and  C_5
REMARK    3  A    between atoms: C_5  and  O_6
REMARK    4  A    between atoms: O_6  and  C_7
REMARK    5  A    between atoms: C_7  and  C_9
REMARK    6  A    between atoms: N_12  and  C_13
REMARK    7  A    between atoms: C_13  and  C_15
REMARK                            x       y       z     vdW  Elec       q    Type
REMARK                         _______ _______ _______ _____ _____    ______ ____
ROOT
ATOM      1  C   UNL     1      36.435  -0.536  16.734  0.00  0.00    +0.000 A 
ATOM      2  C   UNL     1      35.848   0.676  16.333  0.00  0.00    +0.000 A 
ATOM      3  N   UNL     1      34.601   1.053  16.893  0.00  0.00    +0.000 NA
ATOM      4  N   UNL     1      36.630   1.276  15.444  0.00  0.00    +0.000 N 
ATOM      5  C   UNL     1      37.686   0.500  15.263  0.00  0.00    +0.000 A 
ATOM      6  N   UNL     1      38.750   0.654  14.482  0.00  0.00    +0.000 NA
ATOM      7  C   UNL     1      39.739  -0.251  14.429  0.00  0.00    +0.000 A 
ATOM      8  C   UNL     1      40.845  -0.073  13.604  0.00  0.00    +0.000 A 
ATOM      9  C   UNL     1      41.838  -1.026  13.578  0.00  0.00    +0.000 A 
ATOM     10  C   UNL     1      41.748  -2.161  14.365  0.00  0.00    +0.000 A 
ATOM     11  C   UNL     1      40.654  -2.333  15.179  0.00  0.00    +0.000 A 
ATOM     12  C   UNL     1      39.658  -1.379  15.205  0.00  0.00    +0.000 A 
ATOM     13  N   UNL     1      38.590  -1.551  16.002  0.00  0.00    +0.000 NA
ATOM     14  C   UNL     1      37.616  -0.633  16.038  0.00  0.00    +0.000 A 
ENDROOT
BRANCH   1  15
ATOM     15  C   UNL     1      35.937  -1.512  17.681  0.00  0.00    +0.000 C 
ATOM     16  O   UNL     1      36.180  -1.393  18.895  0.00  0.00    +0.000 OA
BRANCH  15  17
ATOM     17  O   UNL     1      35.202  -2.560  17.230  0.00  0.00    +0.000 OA
BRANCH  17  18
ATOM     18  C   UNL     1      34.697  -2.904  16.020  0.00  0.00    +0.000 C 
BRANCH  18  19
ATOM     19  C   UNL     1      35.305  -4.359  15.626  0.00  0.00    +0.000 C 
ATOM     20  C   UNL     1      36.304  -3.731  14.446  0.00  0.00    +0.000 C 
BRANCH  19  22
ATOM     21  C   UNL     1      32.880  -4.451  15.313  0.00  0.00    +0.000 C 
ATOM     22  C   UNL     1      34.125  -4.631  14.467  0.00  0.00    +0.000 C 
ENDBRANCH  19  22
ENDBRANCH  18  19
ENDBRANCH  17  18
ENDBRANCH  15  17
ENDBRANCH   1  15
BRANCH   4  23
ATOM     23  C   UNL     1      36.314   2.616  14.789  0.00  0.00    +0.000 C 
ATOM     24  C   UNL     1      35.005   3.036  15.701  0.00  0.00    +0.000 C 
BRANCH  23  25
ATOM     25  C   UNL     1      37.357   3.525  15.559  0.00  0.00    +0.000 A 
ATOM     26  C   UNL     1      38.371   4.097  14.862  0.00  0.00    +0.000 A 
ATOM     27  C   UNL     1      39.318   4.881  15.445  0.00  0.00    +0.000 A 
ATOM     28  C   UNL     1      39.224   5.090  16.806  0.00  0.00    +0.000 A 
ATOM     29  C   UNL     1      38.220   4.530  17.530  0.00  0.00    +0.000 A 
ATOM     30  C   UNL     1      37.275   3.735  16.884  0.00  0.00    +0.000 A 
ENDBRANCH  23  25
ENDBRANCH   4  23
TORSDOF 7
ENDMDL
MODEL 3
REMARK VINA RESULT:      -7.6      2.499      6.091
REMARK  Name = 
REMARK  7 active torsions:
REMARK  status: ('A' for Active; 'I' for Inactive)
REMARK    1  A    between atoms: C_2  and  C_3
REMARK    2  A    between atoms: C_3  and  C_5
REMARK    3  A    between atoms: C_5  and  O_6
REMARK    4  A    between atoms: O_6  and  C_7
REMARK    5  A    between atoms: C_7  and  C_9
REMARK    6  A    between atoms: N_12  and  C_13
REMARK    7  A    between atoms: C_13  and  C_15
REMARK                            x       y       z     vdW  Elec       q    Type
REMARK                         _______ _______ _______ _____ _____    ______ ____
ROOT
ATOM      1  C   UNL     1      38.346  -1.229  13.806  0.00  0.00    +0.000 A 
ATOM      2  C   UNL     1      37.584  -0.089  13.500  0.00  0.00    +0.000 A 
ATOM      3  N   UNL     1      37.561   0.384  12.164  0.00  0.00    +0.000 NA
ATOM      4  N   UNL     1      36.990   0.357  14.602  0.00  0.00    +0.000 N 
ATOM      5  C   UNL     1      37.341  -0.449  15.590  0.00  0.00    +0.000 A 
ATOM      6  N   UNL     1      37.015  -0.432  16.878  0.00  0.00    +0.000 NA
ATOM      7  C   UNL     1      37.473  -1.345  17.748  0.00  0.00    +0.000 A 
ATOM      8  C   UNL     1      37.120  -1.310  19.093  0.00  0.00    +0.000 A 
ATOM      9  C   UNL     1      37.613  -2.267  19.952  0.00  0.00    +0.000 A 
ATOM     10  C   UNL     1      38.455  -3.263  19.492  0.00  0.00    +0.000 A 
ATOM     11  C   UNL     1      38.800  -3.295  18.162  0.00  0.00    +0.000 A 
ATOM     12  C   UNL     1      38.308  -2.337  17.300  0.00  0.00    +0.000 A 
ATOM     13  N   UNL     1      38.648  -2.370  16.000  0.00  0.00    +0.000 NA
ATOM     14  C   UNL     1      38.179  -1.448  15.152  0.00  0.00    +0.000 A 
ENDROOT
BRANCH   1  15
ATOM     15  C   UNL     1      39.155  -2.040  12.920  0.00  0.00    +0.000 C 
ATOM     16  O   UNL     1      38.759  -3.160  12.552  0.00  0.00    +0.000 OA
BRANCH  15  17
ATOM     17  O   UNL     1      40.352  -1.564  12.494  0.00  0.00    +0.000 OA
BRANCH  17  18
ATOM     18  C   UNL     1      41.638  -1.783  12.862  0.00  0.00    +0.000 C 
BRANCH  18  19
ATOM     19  C   UNL     1      41.859  -1.095  14.319  0.00  0.00    +0.000 C 
ATOM     20  C   UNL     1      42.367   0.354  13.667  0.00  0.00    +0.000 C 
BRANCH  19  22
ATOM     21  C   UNL     1      44.118  -0.303  14.823  0.00  0.00    +0.000 C 
ATOM     22  C   UNL     1      43.455  -1.601  14.408  0.00  0.00    +0.000 C 
ENDBRANCH  19  22
ENDBRANCH  18  19
ENDBRANCH  17  18
ENDBRANCH  15  17
ENDBRANCH   1  15
BRANCH   4  23
ATOM     23  C   UNL     1      36.080   1.579  14.650  0.00  0.00    +0.000 C 
ATOM     24  C   UNL     1      35.283   1.241  16.054  0.00  0.00    +0.000 C 
BRANCH  23  25
ATOM     25  C   UNL     1      37.093   2.623  15.276  0.00  0.00    +0.000 A 
ATOM     26  C   UNL     1      36.817   3.159  16.492  0.00  0.00    +0.000 A 
ATOM     27  C   UNL     1      37.625   4.071  17.098  0.00  0.00    +0.000 A 
ATOM     28  C   UNL     1      38.770   4.454  16.428  0.00  0.00    +0.000 A 
ATOM     29  C   UNL     1      39.072   3.934  15.209  0.00  0.00    +0.000 A 
ATOM     30  C   UNL     1      38.211   3.003  14.632  0.00  0.00    +0.000 A 
ENDBRANCH  23  25
ENDBRANCH   4  23
TORSDOF 7
ENDMDL
MODEL 4
REMARK VINA RESULT:      -7.5      1.995      6.274
REMARK  Name = 
REMARK  7 active torsions:
REMARK  status: ('A' for Active; 'I' for Inactive)
REMARK    1  A    between atoms: C_2  and  C_3
REMARK    2  A    between atoms: C_3  and  C_5
REMARK    3  A    between atoms: C_5  and  O_6
REMARK    4  A    between atoms: O_6  and  C_7
REMARK    5  A    between atoms: C_7  and  C_9
REMARK    6  A    between atoms: N_12  and  C_13
REMARK    7  A    between atoms: C_13  and  C_15
REMARK                            x       y       z     vdW  Elec       q    Type
REMARK                         _______ _______ _______ _____ _____    ______ ____
ROOT
ATOM      1  C   UNL     1      36.497   2.590  15.702  0.00  0.00    +0.000 A 
ATOM      2  C   UNL     1      36.872   2.263  14.387  0.00  0.00    +0.000 A 
ATOM      3  N   UNL     1      36.046   1.387  13.637  0.00  0.00    +0.000 NA
ATOM      4  N   UNL     1      38.006   2.881  14.082  0.00  0.00    +0.000 N 
ATOM      5  C   UNL     1      38.368   3.585  15.141  0.00  0.00    +0.000 A 
ATOM      6  N   UNL     1      39.420   4.371  15.340  0.00  0.00    +0.000 NA
ATOM      7  C   UNL     1      39.627   5.016  16.498  0.00  0.00    +0.000 A 
ATOM      8  C   UNL     1      40.736   5.834  16.687  0.00  0.00    +0.000 A 
ATOM      9  C   UNL     1      40.910   6.478  17.892  0.00  0.00    +0.000 A 
ATOM     10  C   UNL     1      39.994   6.321  18.916  0.00  0.00    +0.000 A 
ATOM     11  C   UNL     1      38.900   5.512  18.725  0.00  0.00    +0.000 A 
ATOM     12  C   UNL     1      38.724   4.865  17.520  0.00  0.00    +0.000 A 
ATOM     13  N   UNL     1      37.653   4.075  17.336  0.00  0.00    +0.000 NA
ATOM     14  C   UNL     1      37.469   3.441  16.172  0.00  0.00    +0.000 A 
ENDROOT
BRANCH   1  15
ATOM     15  C   UNL     1      35.338   2.149  16.448  0.00  0.00    +0.000 C 
ATOM     16  O   UNL     1      34.229   2.682  16.265  0.00  0.00    +0.000 OA
BRANCH  15  17
ATOM     17  O   UNL     1      35.473   1.146  17.353  0.00  0.00    +0.000 OA
BRANCH  17  18
ATOM     18  C   UNL     1      36.275   0.057  17.439  0.00  0.00    +0.000 C 
BRANCH  18  19
ATOM     19  C   UNL     1      35.771  -1.017  16.327  0.00  0.00    +0.000 C 
ATOM     20  C   UNL     1      36.007  -2.323  17.338  0.00  0.00    +0.000 C 
BRANCH  19  22
ATOM     21  C   UNL     1      36.997  -2.056  14.482  0.00  0.00    +0.000 C 
ATOM     22  C   UNL     1      37.316  -1.229  15.711  0.00  0.00    +0.000 C 
ENDBRANCH  19  22
ENDBRANCH  18  19
ENDBRANCH  17  18
ENDBRANCH  15  17
ENDBRANCH   1  15
BRANCH   4  23
ATOM     23  C   UNL     1      38.712   2.760  12.735  0.00  0.00    +0.000 C 
ATOM     24  C   UNL     1      40.064   3.638  13.083  0.00  0.00    +0.000 C 
BRANCH  23  25
ATOM     25  C   UNL     1      39.378   1.337  12.926  0.00  0.00    +0.000 A 
ATOM     26  C   UNL     1      39.088   0.351  12.040  0.00  0.00    +0.000 A 
ATOM     27  C   UNL     1      39.605  -0.904  12.136  0.00  0.00    +0.000 A 
ATOM     28  C   UNL     1      40.460  -1.163  13.190  0.00  0.00    +0.000 A 
ATOM     29  C   UNL     1      40.768  -0.196  14.092  0.00  0.00    +0.000 A 
ATOM     30  C   UNL     1      40.211   1.073  13.948  0.00  0.00    +0.000 A 
ENDBRANCH  23  25
ENDBRANCH   4  23
TORSDOF 7
ENDMDL
MODEL 5
REMARK VINA RESULT:      -7.4      3.057      5.686
REMARK  Name = 
REMARK  7 active torsions:
REMARK  status: ('A' for Active; 'I' for Inactive)
REMARK    1  A    between atoms: C_2  and  C_3
REMARK    2  A    between atoms: C_3  and  C_5
REMARK    3  A    between atoms: C_5  and  O_6
REMARK    4  A    between atoms: O_6  and  C_7
REMARK    5  A    between atoms: C_7  and  C_9
REMARK    6  A    between atoms: N_12  and  C_13
REMARK    7  A    between atoms: C_13  and  C_15
REMARK                            x       y       z     vdW  Elec       q    Type
REMARK                         _______ _______ _______ _____ _____    ______ ____
ROOT
ATOM      1  C   UNL     1      39.650  -1.150  14.823  0.00  0.00    +0.000 A 
ATOM      2  C   UNL     1      39.342  -2.177  15.732  0.00  0.00    +0.000 A 
ATOM      3  N   UNL     1      40.234  -3.273  15.857  0.00  0.00    +0.000 NA
ATOM      4  N   UNL     1      38.195  -1.902  16.341  0.00  0.00    +0.000 N 
ATOM      5  C   UNL     1      37.762  -0.749  15.861  0.00  0.00    +0.000 A 
ATOM      6  N   UNL     1      36.669  -0.048  16.145  0.00  0.00    +0.000 NA
ATOM      7  C   UNL     1      36.389   1.120  15.548  0.00  0.00    +0.000 A 
ATOM      8  C   UNL     1      35.239   1.838  15.859  0.00  0.00    +0.000 A 
ATOM      9  C   UNL     1      34.989   3.034  15.223  0.00  0.00    +0.000 A 
ATOM     10  C   UNL     1      35.870   3.529  14.278  0.00  0.00    +0.000 A 
ATOM     11  C   UNL     1      37.004   2.816  13.974  0.00  0.00    +0.000 A 
ATOM     12  C   UNL     1      37.256   1.618  14.610  0.00  0.00    +0.000 A 
ATOM     13  N   UNL     1      38.367   0.924  14.310  0.00  0.00    +0.000 NA
ATOM     14  C   UNL     1      38.624  -0.240  14.919  0.00  0.00    +0.000 A 
ENDROOT
BRANCH   1  15
ATOM     15  C   UNL     1      40.796  -1.031  13.948  0.00  0.00    +0.000 C 
ATOM     16  O   UNL     1      40.688  -1.260  12.730  0.00  0.00    +0.000 OA
BRANCH  15  17
ATOM     17  O   UNL     1      41.995  -0.666  14.470  0.00  0.00    +0.000 OA
BRANCH  17  18
ATOM     18  C   UNL     1      43.197  -1.281  14.588  0.00  0.00    +0.000 C 
BRANCH  18  19
ATOM     19  C   UNL     1      44.333  -0.125  14.720  0.00  0.00    +0.000 C 
ATOM     20  C   UNL     1      45.178  -0.665  13.387  0.00  0.00    +0.000 C 
BRANCH  19  22
ATOM     21  C   UNL     1      45.477  -0.137  16.883  0.00  0.00    +0.000 C 
ATOM     22  C   UNL     1      45.302  -1.074  15.705  0.00  0.00    +0.000 C 
ENDBRANCH  19  22
ENDBRANCH  18  19
ENDBRANCH  17  18
ENDBRANCH  15  17
ENDBRANCH   1  15
BRANCH   4  23
ATOM     23  C   UNL     1      37.550  -2.795  17.396  0.00  0.00    +0.000 C 
ATOM     24  C   UNL     1      36.673  -1.646  18.191  0.00  0.00    +0.000 C 
BRANCH  23  25
ATOM     25  C   UNL     1      36.346  -3.366  16.540  0.00  0.00    +0.000 A 
ATOM     26  C   UNL     1      36.573  -4.406  15.699  0.00  0.00    +0.000 A 
ATOM     27  C   UNL     1      35.600  -4.950  14.917  0.00  0.00    +0.000 A 
ATOM     28  C   UNL     1      34.335  -4.403  15.000  0.00  0.00    +0.000 A 
ATOM     29  C   UNL     1      34.079  -3.361  15.833  0.00  0.00    +0.000 A 
ATOM     30  C   UNL     1      35.110  -2.840  16.613  0.00  0.00    +0.000 A 
ENDBRANCH  23  25
ENDBRANCH   4  23
TORSDOF 7
ENDMDL
MODEL 6
REMARK VINA RESULT:      -7.4      1.777      2.526
REMARK  Name = 
REMARK  7 active torsions:
REMARK  status: ('A' for Active; 'I' for Inactive)
REMARK    1  A    between atoms: C_2  and  C_3
REMARK    2  A    between atoms: C_3  and  C_5
REMARK    3  A    between atoms: C_5  and  O_6
REMARK    4  A    between atoms: O_6  and  C_7
REMARK    5  A    between atoms: C_7  and  C_9
REMARK    6  A    between atoms: N_12  and  C_13
REMARK    7  A    between atoms: C_13  and  C_15
REMARK                            x       y       z     vdW  Elec       q    Type
REMARK                         _______ _______ _______ _____ _____    ______ ____
ROOT
ATOM      1  C   UNL     1      36.682   1.692  15.785  0.00  0.00    +0.000 A 
ATOM      2  C   UNL     1      35.747   0.759  16.266  0.00  0.00    +0.000 A 
ATOM      3  N   UNL     1      34.507   1.229  16.769  0.00  0.00    +0.000 NA
ATOM      4  N   UNL     1      36.241  -0.467  16.148  0.00  0.00    +0.000 N 
ATOM      5  C   UNL     1      37.446  -0.355  15.613  0.00  0.00    +0.000 A 
ATOM      6  N   UNL     1      38.342  -1.284  15.295  0.00  0.00    +0.000 NA
ATOM      7  C   UNL     1      39.530  -0.980  14.752  0.00  0.00    +0.000 A 
ATOM      8  C   UNL     1      40.455  -1.967  14.427  0.00  0.00    +0.000 A 
ATOM      9  C   UNL     1      41.664  -1.611  13.871  0.00  0.00    +0.000 A 
ATOM     10  C   UNL     1      41.969  -0.283  13.632  0.00  0.00    +0.000 A 
ATOM     11  C   UNL     1      41.052   0.688  13.955  0.00  0.00    +0.000 A 
ATOM     12  C   UNL     1      39.841   0.334  14.512  0.00  0.00    +0.000 A 
ATOM     13  N   UNL     1      38.947   1.287  14.827  0.00  0.00    +0.000 NA
ATOM     14  C   UNL     1      37.768   0.959  15.368  0.00  0.00    +0.000 A 
ENDROOT
BRANCH   1  15
ATOM     15  C   UNL     1      36.570   3.133  15.719  0.00  0.00    +0.000 C 
ATOM     16  O   UNL     1      37.073   3.847  16.606  0.00  0.00    +0.000 OA
BRANCH  15  17
ATOM     17  O   UNL     1      35.909   3.701  14.678  0.00  0.00    +0.000 OA
BRANCH  17  18
ATOM     18  C   UNL     1      34.876   4.573  14.582  0.00  0.00    +0.000 C 
BRANCH  18  19
ATOM     19  C   UNL     1      35.221   5.618  13.385  0.00  0.00    +0.000 C 
ATOM     20  C   UNL     1      36.243   6.527  14.340  0.00  0.00    +0.000 C 
BRANCH  19  22
ATOM     21  C   UNL     1      34.573   7.976  13.457  0.00  0.00    +0.000 C 
ATOM     22  C   UNL     1      33.953   6.635  13.795  0.00  0.00    +0.000 C 
ENDBRANCH  19  22
ENDBRANCH  18  19
ENDBRANCH  17  18
ENDBRANCH  15  17
ENDBRANCH   1  15
BRANCH   4  23
ATOM     23  C   UNL     1      35.503  -1.733  16.568  0.00  0.00    +0.000 C 
ATOM     24  C   UNL     1      35.780  -2.643  15.220  0.00  0.00    +0.000 C 
BRANCH  23  25
ATOM     25  C   UNL     1      36.631  -2.399  17.458  0.00  0.00    +0.000 A 
ATOM     26  C   UNL     1      36.981  -1.806  18.627  0.00  0.00    +0.000 A 
ATOM     27  C   UNL     1      37.948  -2.302  19.446  0.00  0.00    +0.000 A 
ATOM     28  C   UNL     1      38.588  -3.460  19.050  0.00  0.00    +0.000 A 
ATOM     29  C   UNL     1      38.259  -4.075  17.884  0.00  0.00    +0.000 A 
ATOM     30  C   UNL     1      37.260  -3.526  17.081  0.00  0.00    +0.000 A 
ENDBRANCH  23  25
ENDBRANCH   4  23
TORSDOF 7
ENDMDL
MODEL 7
REMARK VINA RESULT:      -7.4      2.917      6.335
REMARK  Name = 
REMARK  7 active torsions:
REMARK  status: ('A' for Active; 'I' for Inactive)
REMARK    1  A    between atoms: C_2  and  C_3
REMARK    2  A    between atoms: C_3  and  C_5
REMARK    3  A    between atoms: C_5  and  O_6
REMARK    4  A    between atoms: O_6  and  C_7
REMARK    5  A    between atoms: C_7  and  C_9
REMARK    6  A    between atoms: N_12  and  C_13
REMARK    7  A    between atoms: C_13  and  C_15
REMARK                            x       y       z     vdW  Elec       q    Type
REMARK                         _______ _______ _______ _____ _____    ______ ____
ROOT
ATOM      1  C   UNL     1      39.484  -1.008  14.983  0.00  0.00    +0.000 A 
ATOM      2  C   UNL     1      39.179  -2.088  15.830  0.00  0.00    +0.000 A 
ATOM      3  N   UNL     1      40.099  -3.163  15.929  0.00  0.00    +0.000 NA
ATOM      4  N   UNL     1      38.006  -1.876  16.415  0.00  0.00    +0.000 N 
ATOM      5  C   UNL     1      37.554  -0.712  15.979  0.00  0.00    +0.000 A 
ATOM      6  N   UNL     1      36.433  -0.057  16.262  0.00  0.00    +0.000 NA
ATOM      7  C   UNL     1      36.137   1.132  15.715  0.00  0.00    +0.000 A 
ATOM      8  C   UNL     1      34.958   1.801  16.024  0.00  0.00    +0.000 A 
ATOM      9  C   UNL     1      34.693   3.020  15.441  0.00  0.00    +0.000 A 
ATOM     10  C   UNL     1      35.587   3.586  14.549  0.00  0.00    +0.000 A 
ATOM     11  C   UNL     1      36.751   2.921  14.247  0.00  0.00    +0.000 A 
ATOM     12  C   UNL     1      37.018   1.700  14.831  0.00  0.00    +0.000 A 
ATOM     13  N   UNL     1      38.157   1.053  14.532  0.00  0.00    +0.000 NA
ATOM     14  C   UNL     1      38.430  -0.133  15.091  0.00  0.00    +0.000 A 
ENDROOT
BRANCH   1  15
ATOM     15  C   UNL     1      40.653  -0.813  14.151  0.00  0.00    +0.000 C 
ATOM     16  O   UNL     1      41.423   0.141  14.359  0.00  0.00    +0.000 OA
BRANCH  15  17
ATOM     17  O   UNL     1      40.901  -1.685  13.141  0.00  0.00    +0.000 OA
BRANCH  17  18
ATOM     18  C   UNL     1      41.974  -2.431  12.783  0.00  0.00    +0.000 C 
BRANCH  18  19
ATOM     19  C   UNL     1      41.460  -3.570  11.743  0.00  0.00    +0.000 C 
ATOM     20  C   UNL     1      42.499  -3.076  10.535  0.00  0.00    +0.000 C 
BRANCH  19  22
ATOM     21  C   UNL     1      40.544  -2.744   9.630  0.00  0.00    +0.000 C 
ATOM     22  C   UNL     1      40.269  -2.574  11.111  0.00  0.00    +0.000 C 
ENDBRANCH  19  22
ENDBRANCH  18  19
ENDBRANCH  17  18
ENDBRANCH  15  17
ENDBRANCH   1  15
BRANCH   4  23
ATOM     23  C   UNL     1      37.355  -2.837  17.403  0.00  0.00    +0.000 C 
ATOM     24  C   UNL     1      36.378  -1.765  18.188  0.00  0.00    +0.000 C 
BRANCH  23  25
ATOM     25  C   UNL     1      36.230  -3.438  16.465  0.00  0.00    +0.000 A 
ATOM     26  C   UNL     1      34.964  -2.963  16.571  0.00  0.00    +0.000 A 
ATOM     27  C   UNL     1      33.933  -3.430  15.814  0.00  0.00    +0.000 A 
ATOM     28  C   UNL     1      34.212  -4.433  14.906  0.00  0.00    +0.000 A 
ATOM     29  C   UNL     1      35.471  -4.929  14.779  0.00  0.00    +0.000 A 
ATOM     30  C   UNL     1      36.490  -4.415  15.579  0.00  0.00    +0.000 A 
ENDBRANCH  23  25
ENDBRANCH   4  23
TORSDOF 7
ENDMDL
MODEL 8
REMARK VINA RESULT:      -7.3      1.885      4.788
REMARK  Name = 
REMARK  7 active torsions:
REMARK  status: ('A' for Active; 'I' for Inactive)
REMARK    1  A    between atoms: C_2  and  C_3
REMARK    2  A    between atoms: C_3  and  C_5
REMARK    3  A    between atoms: C_5  and  O_6
REMARK    4  A    between atoms: O_6  and  C_7
REMARK    5  A    between atoms: C_7  and  C_9
REMARK    6  A    between atoms: N_12  and  C_13
REMARK    7  A    between atoms: C_13  and  C_15
REMARK                            x       y       z     vdW  Elec       q    Type
REMARK                         _______ _______ _______ _____ _____    ______ ____
ROOT
ATOM      1  C   UNL     1      38.162   2.767  15.128  0.00  0.00    +0.000 A 
ATOM      2  C   UNL     1      38.961   2.436  14.019  0.00  0.00    +0.000 A 
ATOM      3  N   UNL     1      39.830   3.419  13.483  0.00  0.00    +0.000 NA
ATOM      4  N   UNL     1      38.728   1.178  13.664  0.00  0.00    +0.000 N 
ATOM      5  C   UNL     1      37.821   0.696  14.497  0.00  0.00    +0.000 A 
ATOM      6  N   UNL     1      37.258  -0.506  14.563  0.00  0.00    +0.000 NA
ATOM      7  C   UNL     1      36.341  -0.821  15.491  0.00  0.00    +0.000 A 
ATOM      8  C   UNL     1      35.763  -2.084  15.542  0.00  0.00    +0.000 A 
ATOM      9  C   UNL     1      34.825  -2.366  16.511  0.00  0.00    +0.000 A 
ATOM     10  C   UNL     1      34.452  -1.405  17.433  0.00  0.00    +0.000 A 
ATOM     11  C   UNL     1      35.026  -0.158  17.379  0.00  0.00    +0.000 A 
ATOM     12  C   UNL     1      35.965   0.126  16.409  0.00  0.00    +0.000 A 
ATOM     13  N   UNL     1      36.524   1.348  16.358  0.00  0.00    +0.000 NA
ATOM     14  C   UNL     1      37.437   1.637  15.422  0.00  0.00    +0.000 A 
ENDROOT
BRANCH   1  15
ATOM     15  C   UNL     1      38.087   4.022  15.846  0.00  0.00    +0.000 C 
ATOM     16  O   UNL     1      37.257   4.888  15.516  0.00  0.00    +0.000 OA
BRANCH  15  17
ATOM     17  O   UNL     1      38.932   4.244  16.884  0.00  0.00    +0.000 OA
BRANCH  17  18
ATOM     18  C   UNL     1      38.772   4.725  18.141  0.00  0.00    +0.000 C 
BRANCH  18  19
ATOM     19  C   UNL     1      39.134   6.310  18.114  0.00  0.00    +0.000 C 
ATOM     20  C   UNL     1      40.594   6.063  17.345  0.00  0.00    +0.000 C 
BRANCH  19  22
ATOM     21  C   UNL     1      39.286   7.437  20.281  0.00  0.00    +0.000 C 
ATOM     22  C   UNL     1      39.917   6.241  19.596  0.00  0.00    +0.000 C 
ENDBRANCH  19  22
ENDBRANCH  18  19
ENDBRANCH  17  18
ENDBRANCH  15  17
ENDBRANCH   1  15
BRANCH   4  23
ATOM     23  C   UNL     1      39.418   0.475  12.500  0.00  0.00    +0.000 C 
ATOM     24  C   UNL     1      40.211   1.772  11.860  0.00  0.00    +0.000 C 
BRANCH  23  25
ATOM     25  C   UNL     1      40.665  -0.124  13.271  0.00  0.00    +0.000 A 
ATOM     26  C   UNL     1      41.814   0.597  13.322  0.00  0.00    +0.000 A 
ATOM     27  C   UNL     1      42.936   0.154  13.952  0.00  0.00    +0.000 A 
ATOM     28  C   UNL     1      42.881  -1.086  14.557  0.00  0.00    +0.000 A 
ATOM     29  C   UNL     1      41.745  -1.830  14.521  0.00  0.00    +0.000 A 
ATOM     30  C   UNL     1      40.623  -1.330  13.863  0.00  0.00    +0.000 A 
ENDBRANCH  23  25
ENDBRANCH   4  23
TORSDOF 7
ENDMDL
MODEL 9
REMARK VINA RESULT:      -7.3      3.078      6.722
REMARK  Name = 
REMARK  7 active torsions:
REMARK  status: ('A' for Active; 'I' for Inactive)
REMARK    1  A    between atoms: C_2  and  C_3
REMARK    2  A    between atoms: C_3  and  C_5
REMARK    3  A    between atoms: C_5  and  O_6
REMARK    4  A    between atoms: O_6  and  C_7
REMARK    5  A    between atoms: C_7  and  C_9
REMARK    6  A    between atoms: N_12  and  C_13
REMARK    7  A    between atoms: C_13  and  C_15
REMARK                            x       y       z     vdW  Elec       q    Type
REMARK                         _______ _______ _______ _____ _____    ______ ____
ROOT
ATOM      1  C   UNL     1      38.551  -1.663  16.307  0.00  0.00    +0.000 A 
ATOM      2  C   UNL     1      39.468  -2.563  15.737  0.00  0.00    +0.000 A 
ATOM      3  N   UNL     1      39.785  -3.754  16.437  0.00  0.00    +0.000 NA
ATOM      4  N   UNL     1      39.889  -2.088  14.571  0.00  0.00    +0.000 N 
ATOM      5  C   UNL     1      39.281  -0.930  14.375  0.00  0.00    +0.000 A 
ATOM      6  N   UNL     1      39.361  -0.069  13.366  0.00  0.00    +0.000 NA
ATOM      7  C   UNL     1      38.659   1.074  13.338  0.00  0.00    +0.000 A 
ATOM      8  C   UNL     1      38.758   1.962  12.273  0.00  0.00    +0.000 A 
ATOM      9  C   UNL     1      38.020   3.124  12.284  0.00  0.00    +0.000 A 
ATOM     10  C   UNL     1      37.181   3.418  13.344  0.00  0.00    +0.000 A 
ATOM     11  C   UNL     1      37.086   2.538  14.394  0.00  0.00    +0.000 A 
ATOM     12  C   UNL     1      37.825   1.373  14.385  0.00  0.00    +0.000 A 
ATOM     13  N   UNL     1      37.731   0.514  15.415  0.00  0.00    +0.000 NA
ATOM     14  C   UNL     1      38.442  -0.620  15.419  0.00  0.00    +0.000 A 
ENDROOT
BRANCH   1  15
ATOM     15  C   UNL     1      37.843  -1.770  17.565  0.00  0.00    +0.000 C 
ATOM     16  O   UNL     1      38.374  -1.388  18.624  0.00  0.00    +0.000 OA
BRANCH  15  17
ATOM     17  O   UNL     1      36.590  -2.292  17.579  0.00  0.00    +0.000 OA
BRANCH  17  18
ATOM     18  C   UNL     1      35.980  -3.295  16.901  0.00  0.00    +0.000 C 
BRANCH  18  19
ATOM     19  C   UNL     1      35.239  -2.639  15.611  0.00  0.00    +0.000 C 
ATOM     20  C   UNL     1      34.042  -3.802  15.585  0.00  0.00    +0.000 C 
BRANCH  19  22
ATOM     21  C   UNL     1      36.241  -4.851  15.306  0.00  0.00    +0.000 C 
ATOM     22  C   UNL     1      36.134  -3.554  14.528  0.00  0.00    +0.000 C 
ENDBRANCH  19  22
ENDBRANCH  18  19
ENDBRANCH  17  18
ENDBRANCH  15  17
ENDBRANCH   1  15
BRANCH   4  23
ATOM     23  C   UNL     1      40.891  -2.800  13.668  0.00  0.00    +0.000 C 
ATOM     24  C   UNL     1      40.145  -2.543  12.219  0.00  0.00    +0.000 C 
BRANCH  23  25
ATOM     25  C   UNL     1      41.960  -1.641  13.517  0.00  0.00    +0.000 A 
ATOM     26  C   UNL     1      42.658  -1.245  14.610  0.00  0.00    +0.000 A 
ATOM     27  C   UNL     1      43.586  -0.250  14.574  0.00  0.00    +0.000 A 
ATOM     28  C   UNL     1      43.810   0.370  13.361  0.00  0.00    +0.000 A 
ATOM     29  C   UNL     1      43.125  -0.005  12.249  0.00  0.00    +0.000 A 
ATOM     30  C   UNL     1      42.185  -1.031  12.340  0.00  0.00    +0.000 A 
ENDBRANCH  23  25
ENDBRANCH   4  23
TORSDOF 7
ENDMDL
MODEL 10
REMARK VINA RESULT:      -7.1      2.498      5.556
REMARK  Name = 
REMARK  7 active torsions:
REMARK  status: ('A' for Active; 'I' for Inactive)
REMARK    1  A    between atoms: C_2  and  C_3
REMARK    2  A    between atoms: C_3  and  C_5
REMARK    3  A    between atoms: C_5  and  O_6
REMARK    4  A    between atoms: O_6  and  C_7
REMARK    5  A    between atoms: C_7  and  C_9
REMARK    6  A    between atoms: N_12  and  C_13
REMARK    7  A    between atoms: C_13  and  C_15
REMARK                            x       y       z     vdW  Elec       q    Type
REMARK                         _______ _______ _______ _____ _____    ______ ____
ROOT
ATOM      1  C   UNL     1      38.180   2.759  15.171  0.00  0.00    +0.000 A 
ATOM      2  C   UNL     1      39.025   2.403  14.106  0.00  0.00    +0.000 A 
ATOM      3  N   UNL     1      39.922   3.373  13.588  0.00  0.00    +0.000 NA
ATOM      4  N   UNL     1      38.804   1.139  13.766  0.00  0.00    +0.000 N 
ATOM      5  C   UNL     1      37.859   0.677  14.567  0.00  0.00    +0.000 A 
ATOM      6  N   UNL     1      37.289  -0.522  14.633  0.00  0.00    +0.000 NA
ATOM      7  C   UNL     1      36.331  -0.815  15.526  0.00  0.00    +0.000 A 
ATOM      8  C   UNL     1      35.746  -2.075  15.578  0.00  0.00    +0.000 A 
ATOM      9  C   UNL     1      34.766  -2.334  16.509  0.00  0.00    +0.000 A 
ATOM     10  C   UNL     1      34.356  -1.353  17.395  0.00  0.00    +0.000 A 
ATOM     11  C   UNL     1      34.936  -0.109  17.340  0.00  0.00    +0.000 A 
ATOM     12  C   UNL     1      35.918   0.152  16.407  0.00  0.00    +0.000 A 
ATOM     13  N   UNL     1      36.484   1.370  16.356  0.00  0.00    +0.000 NA
ATOM     14  C   UNL     1      37.438   1.638  15.456  0.00  0.00    +0.000 A 
ENDROOT
BRANCH   1  15
ATOM     15  C   UNL     1      38.078   4.029  15.859  0.00  0.00    +0.000 C 
ATOM     16  O   UNL     1      37.212   4.858  15.527  0.00  0.00    +0.000 OA
BRANCH  15  17
ATOM     17  O   UNL     1      38.938   4.306  16.871  0.00  0.00    +0.000 OA
BRANCH  17  18
ATOM     18  C   UNL     1      38.786   4.770  18.136  0.00  0.00    +0.000 C 
BRANCH  18  19
ATOM     19  C   UNL     1      39.140   6.357  18.126  0.00  0.00    +0.000 C 
ATOM     20  C   UNL     1      40.594   6.128  17.339  0.00  0.00    +0.000 C 
BRANCH  19  22
ATOM     21  C   UNL     1      39.294   7.444  20.313  0.00  0.00    +0.000 C 
ATOM     22  C   UNL     1      39.938   6.272  19.599  0.00  0.00    +0.000 C 
ENDBRANCH  19  22
ENDBRANCH  18  19
ENDBRANCH  17  18
ENDBRANCH  15  17
ENDBRANCH   1  15
BRANCH   4  23
ATOM     23  C   UNL     1      39.542   0.410  12.648  0.00  0.00    +0.000 C 
ATOM     24  C   UNL     1      38.733  -1.026  12.711  0.00  0.00    +0.000 C 
BRANCH  23  25
ATOM     25  C   UNL     1      38.754   0.995  11.405  0.00  0.00    +0.000 A 
ATOM     26  C   UNL     1      37.430   0.726  11.280  0.00  0.00    +0.000 A 
ATOM     27  C   UNL     1      36.680   1.176  10.237  0.00  0.00    +0.000 A 
ATOM     28  C   UNL     1      37.315   1.938   9.277  0.00  0.00    +0.000 A 
ATOM     29  C   UNL     1      38.640   2.223   9.375  0.00  0.00    +0.000 A 
ATOM     30  C   UNL     1      39.363   1.737  10.463  0.00  0.00    +0.000 A 
ENDBRANCH  23  25
ENDBRANCH   4  23
TORSDOF 7
ENDMDL
