MODEL 1
REMARK VINA RESULT:      -7.1      0.000      0.000
REMARK  Name = 
REMARK  4 active torsions:
REMARK  status: ('A' for Active; 'I' for Inactive)
REMARK    1  A    between atoms: C_6  and  C_7
REMARK    2  A    between atoms: N_9  and  N_10
REMARK    3  A    between atoms: C_11  and  C_12
REMARK    4  A    between atoms: C_15  and  C_16
REMARK                            x       y       z     vdW  Elec       q    Type
REMARK                         _______ _______ _______ _____ _____    ______ ____
ROOT
ATOM      1  N   UNL     1      16.035  11.482  35.749  0.00  0.00    +0.000 NA
ATOM      2  C   UNL     1      15.355  11.749  36.812  0.00  0.00    +0.000 C 
ENDROOT
BRANCH   2   3
ATOM      3  C   UNL     1      15.534  10.987  38.044  0.00  0.00    +0.000 A 
ATOM      4  C   UNL     1      16.756  10.458  38.407  0.00  0.00    +0.000 A 
ATOM      5  C   UNL     1      16.939   9.730  39.577  0.00  0.00    +0.000 A 
ATOM      6  C   UNL     1      15.873   9.520  40.422  0.00  0.00    +0.000 A 
ATOM      7  C   UNL     1      14.656  10.054  40.050  0.00  0.00    +0.000 A 
ATOM      8  C   UNL     1      14.474  10.773  38.891  0.00  0.00    +0.000 A 
BRANCH   6   9
ATOM      9  C   UNL     1      15.940   8.770  41.683  0.00  0.00    +0.000 C 
ATOM     10  C   UNL     1      16.591   7.432  41.570  0.00  0.00    +0.000 C 
ATOM     11  C   UNL     1      16.378   9.578  42.860  0.00  0.00    +0.000 C 
ENDBRANCH   6   9
ENDBRANCH   2   3
BRANCH   1  14
ATOM     12  C   UNL     1      15.254  11.708  33.403  0.00  0.00    +0.000 C 
ATOM     13  O   UNL     1      14.839  10.507  33.433  0.00  0.00    +0.000 OA
ATOM     14  N   UNL     1      15.861  12.213  34.569  0.00  0.00    +0.000 NA
BRANCH  12  20
ATOM     15  C   UNL     1      13.498  14.261  33.194  0.00  0.00    +0.000 C 
ATOM     16  C   UNL     1      14.295  13.611  32.102  0.00  0.00    +0.000 A 
ATOM     17  O   UNL     1      14.355  14.062  30.854  0.00  0.00    +0.000 OA
ATOM     18  C   UNL     1      15.122  13.292  30.141  0.00  0.00    +0.000 A 
ATOM     19  C   UNL     1      15.606  12.278  30.922  0.00  0.00    +0.000 A 
ATOM     20  C   UNL     1      15.079  12.479  32.180  0.00  0.00    +0.000 A 
ENDBRANCH  12  20
ENDBRANCH   1  14
TORSDOF 4
ENDMDL
MODEL 2
REMARK VINA RESULT:      -7.1      3.580      8.960
REMARK  Name = 
REMARK  4 active torsions:
REMARK  status: ('A' for Active; 'I' for Inactive)
REMARK    1  A    between atoms: C_6  and  C_7
REMARK    2  A    between atoms: N_9  and  N_10
REMARK    3  A    between atoms: C_11  and  C_12
REMARK    4  A    between atoms: C_15  and  C_16
REMARK                            x       y       z     vdW  Elec       q    Type
REMARK                         _______ _______ _______ _____ _____    ______ ____
ROOT
ATOM      1  N   UNL     1      17.682   9.957  36.202  0.00  0.00    +0.000 NA
ATOM      2  C   UNL     1      17.390   9.567  35.007  0.00  0.00    +0.000 C 
ENDROOT
BRANCH   2   3
ATOM      3  C   UNL     1      16.674  10.434  34.075  0.00  0.00    +0.000 A 
ATOM      4  C   UNL     1      16.824  10.324  32.708  0.00  0.00    +0.000 A 
ATOM      5  C   UNL     1      16.149  11.143  31.813  0.00  0.00    +0.000 A 
ATOM      6  C   UNL     1      15.289  12.107  32.286  0.00  0.00    +0.000 A 
ATOM      7  C   UNL     1      15.144  12.208  33.655  0.00  0.00    +0.000 A 
ATOM      8  C   UNL     1      15.814  11.399  34.543  0.00  0.00    +0.000 A 
BRANCH   6   9
ATOM      9  C   UNL     1      14.520  13.030  31.442  0.00  0.00    +0.000 C 
ATOM     10  C   UNL     1      13.649  13.976  32.198  0.00  0.00    +0.000 C 
ATOM     11  C   UNL     1      15.304  13.655  30.334  0.00  0.00    +0.000 C 
ENDBRANCH   6   9
ENDBRANCH   2   3
BRANCH   1  14
ATOM     12  C   UNL     1      18.257   9.201  38.495  0.00  0.00    +0.000 C 
ATOM     13  O   UNL     1      17.481  10.085  38.974  0.00  0.00    +0.000 OA
ATOM     14  N   UNL     1      18.368   9.126  37.093  0.00  0.00    +0.000 NA
BRANCH  12  20
ATOM     15  C   UNL     1      21.010   9.896  39.755  0.00  0.00    +0.000 C 
ATOM     16  C   UNL     1      20.200   8.651  39.965  0.00  0.00    +0.000 A 
ATOM     17  O   UNL     1      20.569   7.645  40.749  0.00  0.00    +0.000 OA
ATOM     18  C   UNL     1      19.665   6.712  40.729  0.00  0.00    +0.000 A 
ATOM     19  C   UNL     1      18.639   7.086  39.905  0.00  0.00    +0.000 A 
ATOM     20  C   UNL     1      18.977   8.329  39.413  0.00  0.00    +0.000 A 
ENDBRANCH  12  20
ENDBRANCH   1  14
TORSDOF 4
ENDMDL
MODEL 3
REMARK VINA RESULT:      -6.6      3.323      9.037
REMARK  Name = 
REMARK  4 active torsions:
REMARK  status: ('A' for Active; 'I' for Inactive)
REMARK    1  A    between atoms: C_6  and  C_7
REMARK    2  A    between atoms: N_9  and  N_10
REMARK    3  A    between atoms: C_11  and  C_12
REMARK    4  A    between atoms: C_15  and  C_16
REMARK                            x       y       z     vdW  Elec       q    Type
REMARK                         _______ _______ _______ _____ _____    ______ ____
ROOT
ATOM      1  N   UNL     1      17.156  10.393  37.849  0.00  0.00    +0.000 NA
ATOM      2  C   UNL     1      17.452   9.981  36.662  0.00  0.00    +0.000 C 
ENDROOT
BRANCH   2   3
ATOM      3  C   UNL     1      16.819  10.554  35.477  0.00  0.00    +0.000 A 
ATOM      4  C   UNL     1      17.229  10.232  34.200  0.00  0.00    +0.000 A 
ATOM      5  C   UNL     1      16.636  10.770  33.065  0.00  0.00    +0.000 A 
ATOM      6  C   UNL     1      15.595  11.661  33.197  0.00  0.00    +0.000 A 
ATOM      7  C   UNL     1      15.192  11.975  34.479  0.00  0.00    +0.000 A 
ATOM      8  C   UNL     1      15.780  11.444  35.604  0.00  0.00    +0.000 A 
BRANCH   6   9
ATOM      9  C   UNL     1      14.889  12.295  32.077  0.00  0.00    +0.000 C 
ATOM     10  C   UNL     1      14.056  13.471  32.462  0.00  0.00    +0.000 C 
ATOM     11  C   UNL     1      15.723  12.496  30.854  0.00  0.00    +0.000 C 
ENDBRANCH   6   9
ENDBRANCH   2   3
BRANCH   1  14
ATOM     12  C   UNL     1      17.089   9.564  40.188  0.00  0.00    +0.000 C 
ATOM     13  O   UNL     1      15.848   9.833  40.240  0.00  0.00    +0.000 OA
ATOM     14  N   UNL     1      17.762   9.843  38.983  0.00  0.00    +0.000 NA
BRANCH  12  20
ATOM     15  C   UNL     1      16.896   6.569  40.988  0.00  0.00    +0.000 C 
ATOM     16  C   UNL     1      17.636   7.659  41.707  0.00  0.00    +0.000 A 
ATOM     17  O   UNL     1      18.333   7.476  42.823  0.00  0.00    +0.000 OA
ATOM     18  C   UNL     1      18.859   8.600  43.206  0.00  0.00    +0.000 A 
ATOM     19  C   UNL     1      18.514   9.590  42.326  0.00  0.00    +0.000 A 
ATOM     20  C   UNL     1      17.731   8.991  41.363  0.00  0.00    +0.000 A 
ENDBRANCH  12  20
ENDBRANCH   1  14
TORSDOF 4
ENDMDL
MODEL 4
REMARK VINA RESULT:      -6.3     21.420     22.752
REMARK  Name = 
REMARK  4 active torsions:
REMARK  status: ('A' for Active; 'I' for Inactive)
REMARK    1  A    between atoms: C_6  and  C_7
REMARK    2  A    between atoms: N_9  and  N_10
REMARK    3  A    between atoms: C_11  and  C_12
REMARK    4  A    between atoms: C_15  and  C_16
REMARK                            x       y       z     vdW  Elec       q    Type
REMARK                         _______ _______ _______ _____ _____    ______ ____
ROOT
ATOM      1  N   UNL     1      14.937  -8.064  25.901  0.00  0.00    +0.000 NA
ATOM      2  C   UNL     1      14.135  -8.774  25.181  0.00  0.00    +0.000 C 
ENDROOT
BRANCH   2   3
ATOM      3  C   UNL     1      12.713  -8.877  25.499  0.00  0.00    +0.000 A 
ATOM      4  C   UNL     1      11.740  -8.853  24.521  0.00  0.00    +0.000 A 
ATOM      5  C   UNL     1      10.385  -8.950  24.811  0.00  0.00    +0.000 A 
ATOM      6  C   UNL     1       9.975  -9.078  26.119  0.00  0.00    +0.000 A 
ATOM      7  C   UNL     1      10.957  -9.102  27.089  0.00  0.00    +0.000 A 
ATOM      8  C   UNL     1      12.299  -9.005  26.803  0.00  0.00    +0.000 A 
BRANCH   6   9
ATOM      9  C   UNL     1       8.577  -9.190  26.551  0.00  0.00    +0.000 C 
ATOM     10  C   UNL     1       7.580  -8.748  25.532  0.00  0.00    +0.000 C 
ATOM     11  C   UNL     1       8.240 -10.475  27.234  0.00  0.00    +0.000 C 
ENDBRANCH   6   9
ENDBRANCH   2   3
BRANCH   1  14
ATOM     12  C   UNL     1      17.226  -7.209  26.335  0.00  0.00    +0.000 C 
ATOM     13  O   UNL     1      16.790  -6.574  27.346  0.00  0.00    +0.000 OA
ATOM     14  N   UNL     1      16.298  -7.967  25.596  0.00  0.00    +0.000 NA
BRANCH  12  20
ATOM     15  C   UNL     1      18.859  -4.568  26.425  0.00  0.00    +0.000 C 
ATOM     16  C   UNL     1      19.355  -5.934  26.051  0.00  0.00    +0.000 A 
ATOM     17  O   UNL     1      20.606  -6.202  25.696  0.00  0.00    +0.000 OA
ATOM     18  C   UNL     1      20.731  -7.467  25.431  0.00  0.00    +0.000 A 
ATOM     19  C   UNL     1      19.527  -8.093  25.610  0.00  0.00    +0.000 A 
ATOM     20  C   UNL     1      18.642  -7.114  26.007  0.00  0.00    +0.000 A 
ENDBRANCH  12  20
ENDBRANCH   1  14
TORSDOF 4
ENDMDL
MODEL 5
REMARK VINA RESULT:      -6.3     22.554     24.406
REMARK  Name = 
REMARK  4 active torsions:
REMARK  status: ('A' for Active; 'I' for Inactive)
REMARK    1  A    between atoms: C_6  and  C_7
REMARK    2  A    between atoms: N_9  and  N_10
REMARK    3  A    between atoms: C_11  and  C_12
REMARK    4  A    between atoms: C_15  and  C_16
REMARK                            x       y       z     vdW  Elec       q    Type
REMARK                         _______ _______ _______ _____ _____    ______ ____
ROOT
ATOM      1  N   UNL     1      22.585  -8.023  25.312  0.00  0.00    +0.000 NA
ATOM      2  C   UNL     1      22.811  -8.469  24.123  0.00  0.00    +0.000 C 
ENDROOT
BRANCH   2   3
ATOM      3  C   UNL     1      24.153  -8.460  23.547  0.00  0.00    +0.000 A 
ATOM      4  C   UNL     1      24.710  -9.582  22.968  0.00  0.00    +0.000 A 
ATOM      5  C   UNL     1      25.985  -9.586  22.418  0.00  0.00    +0.000 A 
ATOM      6  C   UNL     1      26.739  -8.435  22.438  0.00  0.00    +0.000 A 
ATOM      7  C   UNL     1      26.173  -7.318  23.018  0.00  0.00    +0.000 A 
ATOM      8  C   UNL     1      24.910  -7.314  23.565  0.00  0.00    +0.000 A 
BRANCH   6   9
ATOM      9  C   UNL     1      28.096  -8.314  21.890  0.00  0.00    +0.000 C 
ATOM     10  C   UNL     1      28.343  -9.135  20.669  0.00  0.00    +0.000 C 
ATOM     11  C   UNL     1      28.609  -6.913  21.812  0.00  0.00    +0.000 C 
ENDBRANCH   6   9
ENDBRANCH   2   3
BRANCH   1  14
ATOM     12  C   UNL     1      20.345  -7.013  25.670  0.00  0.00    +0.000 C 
ATOM     13  O   UNL     1      20.683  -6.024  24.948  0.00  0.00    +0.000 OA
ATOM     14  N   UNL     1      21.299  -8.031  25.862  0.00  0.00    +0.000 NA
BRANCH  12  20
ATOM     15  C   UNL     1      18.898  -4.505  26.791  0.00  0.00    +0.000 C 
ATOM     16  C   UNL     1      18.378  -5.911  26.743  0.00  0.00    +0.000 A 
ATOM     17  O   UNL     1      17.184  -6.280  27.191  0.00  0.00    +0.000 OA
ATOM     18  C   UNL     1      17.018  -7.556  27.014  0.00  0.00    +0.000 A 
ATOM     19  C   UNL     1      18.134  -8.085  26.424  0.00  0.00    +0.000 A 
ATOM     20  C   UNL     1      19.009  -7.034  26.248  0.00  0.00    +0.000 A 
ENDBRANCH  12  20
ENDBRANCH   1  14
TORSDOF 4
ENDMDL
MODEL 6
REMARK VINA RESULT:      -6.2     21.144     23.130
REMARK  Name = 
REMARK  4 active torsions:
REMARK  status: ('A' for Active; 'I' for Inactive)
REMARK    1  A    between atoms: C_6  and  C_7
REMARK    2  A    between atoms: N_9  and  N_10
REMARK    3  A    between atoms: C_11  and  C_12
REMARK    4  A    between atoms: C_15  and  C_16
REMARK                            x       y       z     vdW  Elec       q    Type
REMARK                         _______ _______ _______ _____ _____    ______ ____
ROOT
ATOM      1  N   UNL     1      33.885  -1.795  34.199  0.00  0.00    +0.000 NA
ATOM      2  C   UNL     1      33.902  -0.904  33.266  0.00  0.00    +0.000 C 
ENDROOT
BRANCH   2   3
ATOM      3  C   UNL     1      33.836   0.522  33.573  0.00  0.00    +0.000 A 
ATOM      4  C   UNL     1      33.725   0.990  34.866  0.00  0.00    +0.000 A 
ATOM      5  C   UNL     1      33.661   2.344  35.169  0.00  0.00    +0.000 A 
ATOM      6  C   UNL     1      33.711   3.273  34.155  0.00  0.00    +0.000 A 
ATOM      7  C   UNL     1      33.823   2.794  32.865  0.00  0.00    +0.000 A 
ATOM      8  C   UNL     1      33.885   1.453  32.564  0.00  0.00    +0.000 A 
BRANCH   6   9
ATOM      9  C   UNL     1      33.653   4.727  34.348  0.00  0.00    +0.000 C 
ATOM     10  C   UNL     1      32.425   5.373  33.799  0.00  0.00    +0.000 C 
ATOM     11  C   UNL     1      34.038   5.185  35.717  0.00  0.00    +0.000 C 
ENDBRANCH   6   9
ENDBRANCH   2   3
BRANCH   1  14
ATOM     12  C   UNL     1      32.886  -4.066  34.096  0.00  0.00    +0.000 C 
ATOM     13  O   UNL     1      31.801  -3.602  34.569  0.00  0.00    +0.000 OA
ATOM     14  N   UNL     1      33.948  -3.161  33.904  0.00  0.00    +0.000 NA
BRANCH  12  20
ATOM     15  C   UNL     1      33.269  -5.199  31.230  0.00  0.00    +0.000 C 
ATOM     16  C   UNL     1      33.133  -5.976  32.506  0.00  0.00    +0.000 A 
ATOM     17  O   UNL     1      33.160  -7.301  32.579  0.00  0.00    +0.000 OA
ATOM     18  C   UNL     1      33.018  -7.681  33.813  0.00  0.00    +0.000 A 
ATOM     19  C   UNL     1      32.890  -6.582  34.618  0.00  0.00    +0.000 A 
ATOM     20  C   UNL     1      32.963  -5.486  33.785  0.00  0.00    +0.000 A 
ENDBRANCH  12  20
ENDBRANCH   1  14
TORSDOF 4
ENDMDL
MODEL 7
REMARK VINA RESULT:      -6.1      5.711      7.173
REMARK  Name = 
REMARK  4 active torsions:
REMARK  status: ('A' for Active; 'I' for Inactive)
REMARK    1  A    between atoms: C_6  and  C_7
REMARK    2  A    between atoms: N_9  and  N_10
REMARK    3  A    between atoms: C_11  and  C_12
REMARK    4  A    between atoms: C_15  and  C_16
REMARK                            x       y       z     vdW  Elec       q    Type
REMARK                         _______ _______ _______ _____ _____    ______ ____
ROOT
ATOM      1  N   UNL     1      19.644   9.853  37.534  0.00  0.00    +0.000 NA
ATOM      2  C   UNL     1      20.622   9.881  36.692  0.00  0.00    +0.000 C 
ENDROOT
BRANCH   2   3
ATOM      3  C   UNL     1      22.003   9.676  37.119  0.00  0.00    +0.000 A 
ATOM      4  C   UNL     1      23.063   9.766  36.241  0.00  0.00    +0.000 A 
ATOM      5  C   UNL     1      24.381   9.573  36.635  0.00  0.00    +0.000 A 
ATOM      6  C   UNL     1      24.663   9.282  37.950  0.00  0.00    +0.000 A 
ATOM      7  C   UNL     1      23.595   9.195  38.821  0.00  0.00    +0.000 A 
ATOM      8  C   UNL     1      22.290   9.384  38.431  0.00  0.00    +0.000 A 
BRANCH   6   9
ATOM      9  C   UNL     1      26.011   9.058  38.488  0.00  0.00    +0.000 C 
ATOM     10  C   UNL     1      26.245   7.679  39.007  0.00  0.00    +0.000 C 
ATOM     11  C   UNL     1      27.113   9.599  37.638  0.00  0.00    +0.000 C 
ENDBRANCH   6   9
ENDBRANCH   2   3
BRANCH   1  14
ATOM     12  C   UNL     1      17.663  11.294  37.134  0.00  0.00    +0.000 C 
ATOM     13  O   UNL     1      18.320  12.300  37.545  0.00  0.00    +0.000 OA
ATOM     14  N   UNL     1      18.322  10.049  37.123  0.00  0.00    +0.000 NA
BRANCH  12  20
ATOM     15  C   UNL     1      16.778  11.466  34.161  0.00  0.00    +0.000 C 
ATOM     16  C   UNL     1      15.907  11.562  35.379  0.00  0.00    +0.000 A 
ATOM     17  O   UNL     1      14.591  11.739  35.341  0.00  0.00    +0.000 OA
ATOM     18  C   UNL     1      14.114  11.781  36.549  0.00  0.00    +0.000 A 
ATOM     19  C   UNL     1      15.134  11.628  37.449  0.00  0.00    +0.000 A 
ATOM     20  C   UNL     1      16.285  11.486  36.703  0.00  0.00    +0.000 A 
ENDBRANCH  12  20
ENDBRANCH   1  14
TORSDOF 4
ENDMDL
MODEL 8
REMARK VINA RESULT:      -6.1     21.454     23.490
REMARK  Name = 
REMARK  4 active torsions:
REMARK  status: ('A' for Active; 'I' for Inactive)
REMARK    1  A    between atoms: C_6  and  C_7
REMARK    2  A    between atoms: N_9  and  N_10
REMARK    3  A    between atoms: C_11  and  C_12
REMARK    4  A    between atoms: C_15  and  C_16
REMARK                            x       y       z     vdW  Elec       q    Type
REMARK                         _______ _______ _______ _____ _____    ______ ____
ROOT
ATOM      1  N   UNL     1      33.353  -1.770  33.849  0.00  0.00    +0.000 NA
ATOM      2  C   UNL     1      33.929  -0.856  33.143  0.00  0.00    +0.000 C 
ENDROOT
BRANCH   2   3
ATOM      3  C   UNL     1      33.843   0.556  33.505  0.00  0.00    +0.000 A 
ATOM      4  C   UNL     1      33.879   1.559  32.559  0.00  0.00    +0.000 A 
ATOM      5  C   UNL     1      33.799   2.905  32.891  0.00  0.00    +0.000 A 
ATOM      6  C   UNL     1      33.675   3.275  34.211  0.00  0.00    +0.000 A 
ATOM      7  C   UNL     1      33.639   2.264  35.150  0.00  0.00    +0.000 A 
ATOM      8  C   UNL     1      33.720   0.930  34.822  0.00  0.00    +0.000 A 
BRANCH   6   9
ATOM      9  C   UNL     1      33.581   4.661  34.687  0.00  0.00    +0.000 C 
ATOM     10  C   UNL     1      34.895   5.347  34.851  0.00  0.00    +0.000 C 
ATOM     11  C   UNL     1      32.532   5.478  34.006  0.00  0.00    +0.000 C 
ENDBRANCH   6   9
ENDBRANCH   2   3
BRANCH   1  14
ATOM     12  C   UNL     1      34.092  -4.102  34.270  0.00  0.00    +0.000 C 
ATOM     13  O   UNL     1      34.643  -3.725  35.351  0.00  0.00    +0.000 OA
ATOM     14  N   UNL     1      33.436  -3.121  33.501  0.00  0.00    +0.000 NA
BRANCH  12  20
ATOM     15  C   UNL     1      31.724  -6.099  34.498  0.00  0.00    +0.000 C 
ATOM     16  C   UNL     1      33.112  -6.383  34.004  0.00  0.00    +0.000 A 
ATOM     17  O   UNL     1      33.524  -7.573  33.584  0.00  0.00    +0.000 OA
ATOM     18  C   UNL     1      34.770  -7.509  33.219  0.00  0.00    +0.000 A 
ATOM     19  C   UNL     1      35.232  -6.232  33.394  0.00  0.00    +0.000 A 
ATOM     20  C   UNL     1      34.172  -5.507  33.897  0.00  0.00    +0.000 A 
ENDBRANCH  12  20
ENDBRANCH   1  14
TORSDOF 4
ENDMDL
MODEL 9
REMARK VINA RESULT:      -6.0     21.619     25.082
REMARK  Name = 
REMARK  4 active torsions:
REMARK  status: ('A' for Active; 'I' for Inactive)
REMARK    1  A    between atoms: C_6  and  C_7
REMARK    2  A    between atoms: N_9  and  N_10
REMARK    3  A    between atoms: C_11  and  C_12
REMARK    4  A    between atoms: C_15  and  C_16
REMARK                            x       y       z     vdW  Elec       q    Type
REMARK                         _______ _______ _______ _____ _____    ______ ____
ROOT
ATOM      1  N   UNL     1      29.880  25.199  20.615  0.00  0.00    +0.000 NA
ATOM      2  C   UNL     1      28.799  24.926  21.265  0.00  0.00    +0.000 C 
ENDROOT
BRANCH   2   3
ATOM      3  C   UNL     1      28.837  24.253  22.561  0.00  0.00    +0.000 A 
ATOM      4  C   UNL     1      30.000  24.143  23.295  0.00  0.00    +0.000 A 
ATOM      5  C   UNL     1      30.049  23.505  24.528  0.00  0.00    +0.000 A 
ATOM      6  C   UNL     1      28.903  22.957  25.058  0.00  0.00    +0.000 A 
ATOM      7  C   UNL     1      27.745  23.074  24.316  0.00  0.00    +0.000 A 
ATOM      8  C   UNL     1      27.696  23.704  23.094  0.00  0.00    +0.000 A 
BRANCH   6   9
ATOM      9  C   UNL     1      28.828  22.260  26.348  0.00  0.00    +0.000 C 
ATOM     10  C   UNL     1      30.150  22.007  26.990  0.00  0.00    +0.000 C 
ATOM     11  C   UNL     1      27.776  22.781  27.272  0.00  0.00    +0.000 C 
ENDBRANCH   6   9
ENDBRANCH   2   3
BRANCH   1  14
ATOM     12  C   UNL     1      29.860  27.240  19.203  0.00  0.00    +0.000 C 
ATOM     13  O   UNL     1      29.915  27.957  20.250  0.00  0.00    +0.000 OA
ATOM     14  N   UNL     1      29.841  25.843  19.374  0.00  0.00    +0.000 NA
BRANCH  12  20
ATOM     15  C   UNL     1      32.378  28.226  17.675  0.00  0.00    +0.000 C 
ATOM     16  C   UNL     1      30.947  28.333  17.238  0.00  0.00    +0.000 A 
ATOM     17  O   UNL     1      30.555  28.886  16.095  0.00  0.00    +0.000 OA
ATOM     18  C   UNL     1      29.261  28.831  15.996  0.00  0.00    +0.000 A 
ATOM     19  C   UNL     1      28.743  28.221  17.106  0.00  0.00    +0.000 A 
ATOM     20  C   UNL     1      29.819  27.900  17.905  0.00  0.00    +0.000 A 
ENDBRANCH  12  20
ENDBRANCH   1  14
TORSDOF 4
ENDMDL
MODEL 10
REMARK VINA RESULT:      -6.0     19.570     20.650
REMARK  Name = 
REMARK  4 active torsions:
REMARK  status: ('A' for Active; 'I' for Inactive)
REMARK    1  A    between atoms: C_6  and  C_7
REMARK    2  A    between atoms: N_9  and  N_10
REMARK    3  A    between atoms: C_11  and  C_12
REMARK    4  A    between atoms: C_15  and  C_16
REMARK                            x       y       z     vdW  Elec       q    Type
REMARK                         _______ _______ _______ _____ _____    ______ ____
ROOT
ATOM      1  N   UNL     1      34.313   6.663  35.936  0.00  0.00    +0.000 NA
ATOM      2  C   UNL     1      33.573   6.177  34.998  0.00  0.00    +0.000 C 
ENDROOT
BRANCH   2   3
ATOM      3  C   UNL     1      33.596   4.755  34.668  0.00  0.00    +0.000 A 
ATOM      4  C   UNL     1      33.938   3.792  35.596  0.00  0.00    +0.000 A 
ATOM      5  C   UNL     1      33.964   2.437  35.294  0.00  0.00    +0.000 A 
ATOM      6  C   UNL     1      33.637   2.015  34.025  0.00  0.00    +0.000 A 
ATOM      7  C   UNL     1      33.295   2.985  33.105  0.00  0.00    +0.000 A 
ATOM      8  C   UNL     1      33.270   4.328  33.403  0.00  0.00    +0.000 A 
BRANCH   6   9
ATOM      9  C   UNL     1      33.626   0.614  33.586  0.00  0.00    +0.000 C 
ATOM     10  C   UNL     1      34.390   0.357  32.331  0.00  0.00    +0.000 C 
ATOM     11  C   UNL     1      33.868  -0.378  34.676  0.00  0.00    +0.000 C 
ENDBRANCH   6   9
ENDBRANCH   2   3
BRANCH   1  14
ATOM     12  C   UNL     1      35.290   8.945  35.877  0.00  0.00    +0.000 C 
ATOM     13  O   UNL     1      36.275   8.498  35.210  0.00  0.00    +0.000 OA
ATOM     14  N   UNL     1      34.290   8.026  36.250  0.00  0.00    +0.000 NA
BRANCH  12  20
ATOM     15  C   UNL     1      36.734  10.190  38.328  0.00  0.00    +0.000 C 
ATOM     16  C   UNL     1      35.901  10.901  37.303  0.00  0.00    +0.000 A 
ATOM     17  O   UNL     1      35.664  12.208  37.311  0.00  0.00    +0.000 OA
ATOM     18  C   UNL     1      34.914  12.530  36.300  0.00  0.00    +0.000 A 
ATOM     19  C   UNL     1      34.624  11.408  35.571  0.00  0.00    +0.000 A 
ATOM     20  C   UNL     1      35.255  10.362  36.210  0.00  0.00    +0.000 A 
ENDBRANCH  12  20
ENDBRANCH   1  14
TORSDOF 4
ENDMDL
