MODEL 1
REMARK VINA RESULT:      -8.5      0.000      0.000
REMARK  Name = 
REMARK  5 active torsions:
REMARK  status: ('A' for Active; 'I' for Inactive)
REMARK    1  A    between atoms: C_6  and  N_7
REMARK    2  A    between atoms: N_8  and  C_9
REMARK    3  A    between atoms: C_11  and  C_12
REMARK    4  A    between atoms: N_14  and  C_15
REMARK    5  A    between atoms: C_20  and  N_21
REMARK                            x       y       z     vdW  Elec       q    Type
REMARK                         _______ _______ _______ _____ _____    ______ ____
ROOT
ATOM      1  C   UNL     1      24.905  14.878  39.284  0.00  0.00    +0.000 A 
ATOM      2  C   UNL     1      25.862  13.901  39.524  0.00  0.00    +0.000 A 
ATOM      3  C   UNL     1      26.083  13.443  40.799  0.00  0.00    +0.000 A 
ATOM      4  C   UNL     1      25.348  13.961  41.843  0.00  0.00    +0.000 A 
ATOM      5  O   UNL     1      25.568  13.505  43.118  0.00  0.00    +0.000 OA
ATOM      6  C   UNL     1      24.373  14.946  41.655  0.00  0.00    +0.000 A 
ATOM      7  C   UNL     1      23.651  15.449  42.707  0.00  0.00    +0.000 A 
ATOM      8  C   UNL     1      22.705  16.418  42.461  0.00  0.00    +0.000 A 
ATOM      9  C   UNL     1      22.524  16.841  41.165  0.00  0.00    +0.000 A 
ATOM     10  C   UNL     1      23.245  16.340  40.101  0.00  0.00    +0.000 A 
ATOM     11  C   UNL     1      24.183  15.377  40.359  0.00  0.00    +0.000 A 
ENDROOT
BRANCH   3  12
ATOM     12  C   UNL     1      27.075  12.420  41.097  0.00  0.00    +0.000 C 
ATOM     13  O   UNL     1      28.174  12.792  41.580  0.00  0.00    +0.000 OA
ATOM     14  N   UNL     1      26.838  11.057  40.864  0.00  0.00    +0.000 NA
BRANCH  14  15
ATOM     15  C   UNL     1      27.815  10.082  41.161  0.00  0.00    +0.000 A 
ATOM     16  C   UNL     1      28.929   9.954  40.379  0.00  0.00    +0.000 A 
ATOM     17  C   UNL     1      29.891   8.993  40.670  0.00  0.00    +0.000 A 
ATOM     18  C   UNL     1      29.736   8.162  41.745  0.00  0.00    +0.000 A 
ATOM     19  C   UNL     1      28.609   8.296  42.532  0.00  0.00    +0.000 A 
ATOM     20  C   UNL     1      27.636   9.260  42.244  0.00  0.00    +0.000 A 
BRANCH  20  21
ATOM     21  N   UNL     1      26.521   9.326  43.096  0.00  0.00    +0.000 N 
ATOM     22  C   UNL     1      26.463  10.223  44.220  0.00  0.00    +0.000 C 
ATOM     23  C   UNL     1      25.392   8.450  42.825  0.00  0.00    +0.000 C 
ENDBRANCH  20  21
ENDBRANCH  14  15
ENDBRANCH   3  12
BRANCH   1  25
ATOM     24  N   UNL     1      25.613  15.385  37.148  0.00  0.00    +0.000 NA
ATOM     25  N   UNL     1      24.655  15.370  37.976  0.00  0.00    +0.000 NA
BRANCH  24  31
ATOM     26  C   UNL     1      25.306  14.641  32.237  0.00  0.00    +0.000 C 
ATOM     27  C   UNL     1      25.280  15.521  33.427  0.00  0.00    +0.000 A 
ATOM     28  C   UNL     1      25.074  16.885  33.289  0.00  0.00    +0.000 A 
ATOM     29  C   UNL     1      25.041  17.749  34.363  0.00  0.00    +0.000 A 
ATOM     30  C   UNL     1      25.223  17.219  35.624  0.00  0.00    +0.000 A 
ATOM     31  C   UNL     1      25.431  15.870  35.805  0.00  0.00    +0.000 A 
ATOM     32  C   UNL     1      25.455  15.058  34.717  0.00  0.00    +0.000 A 
ENDBRANCH  24  31
ENDBRANCH   1  25
TORSDOF 5
ENDMDL
MODEL 2
REMARK VINA RESULT:      -8.2     25.292     29.514
REMARK  Name = 
REMARK  5 active torsions:
REMARK  status: ('A' for Active; 'I' for Inactive)
REMARK    1  A    between atoms: C_6  and  N_7
REMARK    2  A    between atoms: N_8  and  C_9
REMARK    3  A    between atoms: C_11  and  C_12
REMARK    4  A    between atoms: N_14  and  C_15
REMARK    5  A    between atoms: C_20  and  N_21
REMARK                            x       y       z     vdW  Elec       q    Type
REMARK                         _______ _______ _______ _____ _____    ______ ____
ROOT
ATOM      1  C   UNL     1      38.990   4.079  15.327  0.00  0.00    +0.000 A 
ATOM      2  C   UNL     1      38.105   3.012  15.414  0.00  0.00    +0.000 A 
ATOM      3  C   UNL     1      38.202   1.956  14.543  0.00  0.00    +0.000 A 
ATOM      4  C   UNL     1      39.185   1.960  13.578  0.00  0.00    +0.000 A 
ATOM      5  O   UNL     1      39.283   0.906  12.707  0.00  0.00    +0.000 OA
ATOM      6  C   UNL     1      40.100   3.010  13.447  0.00  0.00    +0.000 A 
ATOM      7  C   UNL     1      41.072   2.996  12.480  0.00  0.00    +0.000 A 
ATOM      8  C   UNL     1      41.945   4.058  12.399  0.00  0.00    +0.000 A 
ATOM      9  C   UNL     1      41.802   5.090  13.297  0.00  0.00    +0.000 A 
ATOM     10  C   UNL     1      40.828   5.112  14.273  0.00  0.00    +0.000 A 
ATOM     11  C   UNL     1      39.967   4.051  14.342  0.00  0.00    +0.000 A 
ENDROOT
BRANCH   3  12
ATOM     12  C   UNL     1      37.297   0.816  14.599  0.00  0.00    +0.000 C 
ATOM     13  O   UNL     1      36.285   0.835  13.854  0.00  0.00    +0.000 OA
ATOM     14  N   UNL     1      37.524  -0.279  15.445  0.00  0.00    +0.000 NA
BRANCH  14  15
ATOM     15  C   UNL     1      36.633  -1.374  15.481  0.00  0.00    +0.000 A 
ATOM     16  C   UNL     1      36.751  -2.396  14.580  0.00  0.00    +0.000 A 
ATOM     17  C   UNL     1      35.874  -3.474  14.615  0.00  0.00    +0.000 A 
ATOM     18  C   UNL     1      34.880  -3.528  15.553  0.00  0.00    +0.000 A 
ATOM     19  C   UNL     1      34.766  -2.494  16.461  0.00  0.00    +0.000 A 
ATOM     20  C   UNL     1      35.645  -1.405  16.431  0.00  0.00    +0.000 A 
BRANCH  20  21
ATOM     21  N   UNL     1      35.456  -0.397  17.391  0.00  0.00    +0.000 N 
ATOM     22  C   UNL     1      34.755   0.825  17.096  0.00  0.00    +0.000 C 
ATOM     23  C   UNL     1      35.994  -0.606  18.727  0.00  0.00    +0.000 C 
ENDBRANCH  20  21
ENDBRANCH  14  15
ENDBRANCH   3  12
BRANCH   1  25
ATOM     24  N   UNL     1      39.134   4.982  17.445  0.00  0.00    +0.000 NA
ATOM     25  N   UNL     1      38.913   5.185  16.214  0.00  0.00    +0.000 NA
BRANCH  24  31
ATOM     26  C   UNL     1      37.044   9.132  19.227  0.00  0.00    +0.000 C 
ATOM     27  C   UNL     1      38.070   8.065  19.271  0.00  0.00    +0.000 A 
ATOM     28  C   UNL     1      39.039   8.062  20.263  0.00  0.00    +0.000 A 
ATOM     29  C   UNL     1      40.017   7.093  20.349  0.00  0.00    +0.000 A 
ATOM     30  C   UNL     1      40.018   6.091  19.401  0.00  0.00    +0.000 A 
ATOM     31  C   UNL     1      39.074   6.056  18.400  0.00  0.00    +0.000 A 
ATOM     32  C   UNL     1      38.130   7.032  18.355  0.00  0.00    +0.000 A 
ENDBRANCH  24  31
ENDBRANCH   1  25
TORSDOF 5
ENDMDL
MODEL 3
REMARK VINA RESULT:      -8.1     25.781     27.793
REMARK  Name = 
REMARK  5 active torsions:
REMARK  status: ('A' for Active; 'I' for Inactive)
REMARK    1  A    between atoms: C_6  and  N_7
REMARK    2  A    between atoms: N_8  and  C_9
REMARK    3  A    between atoms: C_11  and  C_12
REMARK    4  A    between atoms: N_14  and  C_15
REMARK    5  A    between atoms: C_20  and  N_21
REMARK                            x       y       z     vdW  Elec       q    Type
REMARK                         _______ _______ _______ _____ _____    ______ ____
ROOT
ATOM      1  C   UNL     1      37.922   4.253  16.586  0.00  0.00    +0.000 A 
ATOM      2  C   UNL     1      38.735   4.623  17.650  0.00  0.00    +0.000 A 
ATOM      3  C   UNL     1      39.112   5.932  17.815  0.00  0.00    +0.000 A 
ATOM      4  C   UNL     1      38.679   6.882  16.916  0.00  0.00    +0.000 A 
ATOM      5  O   UNL     1      39.055   8.190  17.079  0.00  0.00    +0.000 OA
ATOM      6  C   UNL     1      37.861   6.562  15.828  0.00  0.00    +0.000 A 
ATOM      7  C   UNL     1      37.440   7.522  14.942  0.00  0.00    +0.000 A 
ATOM      8  C   UNL     1      36.635   7.148  13.890  0.00  0.00    +0.000 A 
ATOM      9  C   UNL     1      36.288   5.823  13.771  0.00  0.00    +0.000 A 
ATOM     10  C   UNL     1      36.706   4.851  14.657  0.00  0.00    +0.000 A 
ATOM     11  C   UNL     1      37.505   5.236  15.699  0.00  0.00    +0.000 A 
ENDROOT
BRANCH   3  12
ATOM     12  C   UNL     1      39.961   6.364  18.917  0.00  0.00    +0.000 C 
ATOM     13  O   UNL     1      39.405   6.656  20.005  0.00  0.00    +0.000 OA
ATOM     14  N   UNL     1      41.355   6.457  18.795  0.00  0.00    +0.000 NA
BRANCH  14  15
ATOM     15  C   UNL     1      42.159   6.877  19.876  0.00  0.00    +0.000 A 
ATOM     16  C   UNL     1      42.637   5.969  20.780  0.00  0.00    +0.000 A 
ATOM     17  C   UNL     1      43.429   6.382  21.847  0.00  0.00    +0.000 A 
ATOM     18  C   UNL     1      43.741   7.704  22.006  0.00  0.00    +0.000 A 
ATOM     19  C   UNL     1      43.256   8.616  21.090  0.00  0.00    +0.000 A 
ATOM     20  C   UNL     1      42.458   8.208  20.015  0.00  0.00    +0.000 A 
BRANCH  20  21
ATOM     21  N   UNL     1      42.007   9.203  19.132  0.00  0.00    +0.000 N 
ATOM     22  C   UNL     1      42.661   9.475  17.879  0.00  0.00    +0.000 C 
ATOM     23  C   UNL     1      40.837   9.982  19.509  0.00  0.00    +0.000 C 
ENDBRANCH  20  21
ENDBRANCH  14  15
ENDBRANCH   3  12
BRANCH   1  25
ATOM     24  N   UNL     1      36.719   2.393  17.231  0.00  0.00    +0.000 NA
ATOM     25  N   UNL     1      37.516   2.907  16.391  0.00  0.00    +0.000 NA
BRANCH  24  31
ATOM     26  C   UNL     1      36.441  -1.887  14.708  0.00  0.00    +0.000 C 
ATOM     27  C   UNL     1      36.126  -1.042  15.881  0.00  0.00    +0.000 A 
ATOM     28  C   UNL     1      35.360  -1.542  16.923  0.00  0.00    +0.000 A 
ATOM     29  C   UNL     1      35.036  -0.798  18.038  0.00  0.00    +0.000 A 
ATOM     30  C   UNL     1      35.502   0.499  18.107  0.00  0.00    +0.000 A 
ATOM     31  C   UNL     1      36.267   1.034  17.094  0.00  0.00    +0.000 A 
ATOM     32  C   UNL     1      36.559   0.264  16.015  0.00  0.00    +0.000 A 
ENDBRANCH  24  31
ENDBRANCH   1  25
TORSDOF 5
ENDMDL
MODEL 4
REMARK VINA RESULT:      -8.0     27.145     31.294
REMARK  Name = 
REMARK  5 active torsions:
REMARK  status: ('A' for Active; 'I' for Inactive)
REMARK    1  A    between atoms: C_6  and  N_7
REMARK    2  A    between atoms: N_8  and  C_9
REMARK    3  A    between atoms: C_11  and  C_12
REMARK    4  A    between atoms: N_14  and  C_15
REMARK    5  A    between atoms: C_20  and  N_21
REMARK                            x       y       z     vdW  Elec       q    Type
REMARK                         _______ _______ _______ _____ _____    ______ ____
ROOT
ATOM      1  C   UNL     1      37.082   1.573  15.697  0.00  0.00    +0.000 A 
ATOM      2  C   UNL     1      37.777   1.243  14.540  0.00  0.00    +0.000 A 
ATOM      3  C   UNL     1      37.668  -0.014  13.999  0.00  0.00    +0.000 A 
ATOM      4  C   UNL     1      36.864  -0.950  14.611  0.00  0.00    +0.000 A 
ATOM      5  O   UNL     1      36.755  -2.206  14.073  0.00  0.00    +0.000 OA
ATOM      6  C   UNL     1      36.145  -0.669  15.778  0.00  0.00    +0.000 A 
ATOM      7  C   UNL     1      35.350  -1.614  16.374  0.00  0.00    +0.000 A 
ATOM      8  C   UNL     1      34.666  -1.280  17.521  0.00  0.00    +0.000 A 
ATOM      9  C   UNL     1      34.811  -0.006  18.020  0.00  0.00    +0.000 A 
ATOM     10  C   UNL     1      35.607   0.950  17.427  0.00  0.00    +0.000 A 
ATOM     11  C   UNL     1      36.283   0.605  16.288  0.00  0.00    +0.000 A 
ENDROOT
BRANCH   3  12
ATOM     12  C   UNL     1      38.377  -0.403  12.788  0.00  0.00    +0.000 C 
ATOM     13  O   UNL     1      37.840  -0.134  11.683  0.00  0.00    +0.000 OA
ATOM     14  N   UNL     1      39.618  -1.055  12.823  0.00  0.00    +0.000 NA
BRANCH  14  15
ATOM     15  C   UNL     1      40.287  -1.422  11.636  0.00  0.00    +0.000 A 
ATOM     16  C   UNL     1      40.000  -2.606  11.014  0.00  0.00    +0.000 A 
ATOM     17  C   UNL     1      40.659  -2.969   9.844  0.00  0.00    +0.000 A 
ATOM     18  C   UNL     1      41.605  -2.146   9.299  0.00  0.00    +0.000 A 
ATOM     19  C   UNL     1      41.891  -0.952   9.931  0.00  0.00    +0.000 A 
ATOM     20  C   UNL     1      41.232  -0.580  11.108  0.00  0.00    +0.000 A 
BRANCH  20  21
ATOM     21  N   UNL     1      41.585   0.652  11.685  0.00  0.00    +0.000 N 
ATOM     22  C   UNL     1      40.931   1.883  11.330  0.00  0.00    +0.000 C 
ATOM     23  C   UNL     1      42.654   0.671  12.672  0.00  0.00    +0.000 C 
ENDBRANCH  20  21
ENDBRANCH  14  15
ENDBRANCH   3  12
BRANCH   1  25
ATOM     24  N   UNL     1      38.297   3.454  16.253  0.00  0.00    +0.000 NA
ATOM     25  N   UNL     1      37.176   2.864  16.278  0.00  0.00    +0.000 NA
BRANCH  24  31
ATOM     26  C   UNL     1      39.890   6.475  19.873  0.00  0.00    +0.000 C 
ATOM     27  C   UNL     1      39.230   6.236  18.570  0.00  0.00    +0.000 A 
ATOM     28  C   UNL     1      38.731   7.296  17.828  0.00  0.00    +0.000 A 
ATOM     29  C   UNL     1      38.107   7.129  16.610  0.00  0.00    +0.000 A 
ATOM     30  C   UNL     1      37.981   5.846  16.120  0.00  0.00    +0.000 A 
ATOM     31  C   UNL     1      38.463   4.765  16.824  0.00  0.00    +0.000 A 
ATOM     32  C   UNL     1      39.069   4.978  18.019  0.00  0.00    +0.000 A 
ENDBRANCH  24  31
ENDBRANCH   1  25
TORSDOF 5
ENDMDL
MODEL 5
REMARK VINA RESULT:      -7.6     28.977     33.073
REMARK  Name = 
REMARK  5 active torsions:
REMARK  status: ('A' for Active; 'I' for Inactive)
REMARK    1  A    between atoms: C_6  and  N_7
REMARK    2  A    between atoms: N_8  and  C_9
REMARK    3  A    between atoms: C_11  and  C_12
REMARK    4  A    between atoms: N_14  and  C_15
REMARK    5  A    between atoms: C_20  and  N_21
REMARK                            x       y       z     vdW  Elec       q    Type
REMARK                         _______ _______ _______ _____ _____    ______ ____
ROOT
ATOM      1  C   UNL     1      38.764   0.495  10.929  0.00  0.00    +0.000 A 
ATOM      2  C   UNL     1      38.333   0.589  12.246  0.00  0.00    +0.000 A 
ATOM      3  C   UNL     1      38.773  -0.310  13.187  0.00  0.00    +0.000 A 
ATOM      4  C   UNL     1      39.645  -1.309  12.816  0.00  0.00    +0.000 A 
ATOM      5  O   UNL     1      40.084  -2.208  13.754  0.00  0.00    +0.000 OA
ATOM      6  C   UNL     1      40.108  -1.448  11.503  0.00  0.00    +0.000 A 
ATOM      7  C   UNL     1      40.976  -2.450  11.152  0.00  0.00    +0.000 A 
ATOM      8  C   UNL     1      41.397  -2.538   9.845  0.00  0.00    +0.000 A 
ATOM      9  C   UNL     1      40.926  -1.612   8.943  0.00  0.00    +0.000 A 
ATOM     10  C   UNL     1      40.053  -0.600   9.287  0.00  0.00    +0.000 A 
ATOM     11  C   UNL     1      39.642  -0.525  10.590  0.00  0.00    +0.000 A 
ENDROOT
BRANCH   3  12
ATOM     12  C   UNL     1      38.349  -0.248  14.578  0.00  0.00    +0.000 C 
ATOM     13  O   UNL     1      39.115   0.316  15.400  0.00  0.00    +0.000 OA
ATOM     14  N   UNL     1      37.131  -0.791  15.015  0.00  0.00    +0.000 NA
BRANCH  14  15
ATOM     15  C   UNL     1      36.740  -0.719  16.369  0.00  0.00    +0.000 A 
ATOM     16  C   UNL     1      36.077   0.379  16.843  0.00  0.00    +0.000 A 
ATOM     17  C   UNL     1      35.692   0.452  18.178  0.00  0.00    +0.000 A 
ATOM     18  C   UNL     1      35.971  -0.576  19.035  0.00  0.00    +0.000 A 
ATOM     19  C   UNL     1      36.640  -1.683  18.551  0.00  0.00    +0.000 A 
ATOM     20  C   UNL     1      37.031  -1.762  17.210  0.00  0.00    +0.000 A 
BRANCH  20  21
ATOM     21  N   UNL     1      37.709  -2.924  16.803  0.00  0.00    +0.000 N 
ATOM     22  C   UNL     1      39.129  -3.084  16.969  0.00  0.00    +0.000 C 
ATOM     23  C   UNL     1      36.937  -3.995  16.191  0.00  0.00    +0.000 C 
ENDBRANCH  20  21
ENDBRANCH  14  15
ENDBRANCH   3  12
BRANCH   1  25
ATOM     24  N   UNL     1      37.107   1.386   9.594  0.00  0.00    +0.000 NA
ATOM     25  N   UNL     1      38.327   1.410   9.936  0.00  0.00    +0.000 NA
BRANCH  24  31
ATOM     26  C   UNL     1      35.735   2.399   4.918  0.00  0.00    +0.000 C 
ATOM     27  C   UNL     1      35.929   2.787   6.334  0.00  0.00    +0.000 A 
ATOM     28  C   UNL     1      35.617   4.068   6.762  0.00  0.00    +0.000 A 
ATOM     29  C   UNL     1      35.780   4.481   8.068  0.00  0.00    +0.000 A 
ATOM     30  C   UNL     1      36.274   3.568   8.976  0.00  0.00    +0.000 A 
ATOM     31  C   UNL     1      36.596   2.285   8.593  0.00  0.00    +0.000 A 
ATOM     32  C   UNL     1      36.419   1.924   7.297  0.00  0.00    +0.000 A 
ENDBRANCH  24  31
ENDBRANCH   1  25
TORSDOF 5
ENDMDL
MODEL 6
REMARK VINA RESULT:      -7.6     29.206     33.074
REMARK  Name = 
REMARK  5 active torsions:
REMARK  status: ('A' for Active; 'I' for Inactive)
REMARK    1  A    between atoms: C_6  and  N_7
REMARK    2  A    between atoms: N_8  and  C_9
REMARK    3  A    between atoms: C_11  and  C_12
REMARK    4  A    between atoms: N_14  and  C_15
REMARK    5  A    between atoms: C_20  and  N_21
REMARK                            x       y       z     vdW  Elec       q    Type
REMARK                         _______ _______ _______ _____ _____    ______ ____
ROOT
ATOM      1  C   UNL     1      36.168  -3.711  15.722  0.00  0.00    +0.000 A 
ATOM      2  C   UNL     1      37.433  -3.695  15.147  0.00  0.00    +0.000 A 
ATOM      3  C   UNL     1      38.166  -2.535  15.112  0.00  0.00    +0.000 A 
ATOM      4  C   UNL     1      37.638  -1.382  15.651  0.00  0.00    +0.000 A 
ATOM      5  O   UNL     1      38.369  -0.222  15.615  0.00  0.00    +0.000 OA
ATOM      6  C   UNL     1      36.370  -1.344  16.239  0.00  0.00    +0.000 A 
ATOM      7  C   UNL     1      35.861  -0.187  16.770  0.00  0.00    +0.000 A 
ATOM      8  C   UNL     1      34.607  -0.210  17.337  0.00  0.00    +0.000 A 
ATOM      9  C   UNL     1      33.916  -1.399  17.345  0.00  0.00    +0.000 A 
ATOM     10  C   UNL     1      34.420  -2.568  16.815  0.00  0.00    +0.000 A 
ATOM     11  C   UNL     1      35.668  -2.531  16.254  0.00  0.00    +0.000 A 
ENDROOT
BRANCH   3  12
ATOM     12  C   UNL     1      39.495  -2.473  14.521  0.00  0.00    +0.000 C 
ATOM     13  O   UNL     1      40.484  -2.559  15.293  0.00  0.00    +0.000 OA
ATOM     14  N   UNL     1      39.695  -2.324  13.141  0.00  0.00    +0.000 NA
BRANCH  14  15
ATOM     15  C   UNL     1      40.993  -2.267  12.590  0.00  0.00    +0.000 A 
ATOM     16  C   UNL     1      41.708  -3.414  12.376  0.00  0.00    +0.000 A 
ATOM     17  C   UNL     1      42.988  -3.359  11.834  0.00  0.00    +0.000 A 
ATOM     18  C   UNL     1      43.549  -2.156  11.506  0.00  0.00    +0.000 A 
ATOM     19  C   UNL     1      42.823  -1.002  11.724  0.00  0.00    +0.000 A 
ATOM     20  C   UNL     1      41.535  -1.050  12.270  0.00  0.00    +0.000 A 
BRANCH  20  21
ATOM     21  N   UNL     1      40.869   0.173  12.459  0.00  0.00    +0.000 N 
ATOM     22  C   UNL     1      40.971   0.924  13.682  0.00  0.00    +0.000 C 
ATOM     23  C   UNL     1      40.047   0.686  11.374  0.00  0.00    +0.000 C 
ENDBRANCH  20  21
ENDBRANCH  14  15
ENDBRANCH   3  12
BRANCH   1  25
ATOM     24  N   UNL     1      35.041  -5.433  14.679  0.00  0.00    +0.000 NA
ATOM     25  N   UNL     1      35.388  -4.896  15.773  0.00  0.00    +0.000 NA
BRANCH  24  31
ATOM     26  C   UNL     1      32.963  -9.252  12.258  0.00  0.00    +0.000 C 
ATOM     27  C   UNL     1      33.240  -8.488  13.495  0.00  0.00    +0.000 A 
ATOM     28  C   UNL     1      32.734  -8.913  14.714  0.00  0.00    +0.000 A 
ATOM     29  C   UNL     1      32.962  -8.238  15.895  0.00  0.00    +0.000 A 
ATOM     30  C   UNL     1      33.729  -7.092  15.846  0.00  0.00    +0.000 A 
ATOM     31  C   UNL     1      34.251  -6.635  14.656  0.00  0.00    +0.000 A 
ATOM     32  C   UNL     1      34.000  -7.333  13.519  0.00  0.00    +0.000 A 
ENDBRANCH  24  31
ENDBRANCH   1  25
TORSDOF 5
ENDMDL
MODEL 7
REMARK VINA RESULT:      -7.6     27.848     31.488
REMARK  Name = 
REMARK  5 active torsions:
REMARK  status: ('A' for Active; 'I' for Inactive)
REMARK    1  A    between atoms: C_6  and  N_7
REMARK    2  A    between atoms: N_8  and  C_9
REMARK    3  A    between atoms: C_11  and  C_12
REMARK    4  A    between atoms: N_14  and  C_15
REMARK    5  A    between atoms: C_20  and  N_21
REMARK                            x       y       z     vdW  Elec       q    Type
REMARK                         _______ _______ _______ _____ _____    ______ ____
ROOT
ATOM      1  C   UNL     1      37.546  -0.047  14.997  0.00  0.00    +0.000 A 
ATOM      2  C   UNL     1      37.438   1.309  14.716  0.00  0.00    +0.000 A 
ATOM      3  C   UNL     1      36.392   2.041  15.220  0.00  0.00    +0.000 A 
ATOM      4  C   UNL     1      35.446   1.422  16.008  0.00  0.00    +0.000 A 
ATOM      5  O   UNL     1      34.400   2.152  16.510  0.00  0.00    +0.000 OA
ATOM      6  C   UNL     1      35.509   0.060  16.320  0.00  0.00    +0.000 A 
ATOM      7  C   UNL     1      34.558  -0.539  17.106  0.00  0.00    +0.000 A 
ATOM      8  C   UNL     1      34.672  -1.883  17.380  0.00  0.00    +0.000 A 
ATOM      9  C   UNL     1      35.740  -2.569  16.850  0.00  0.00    +0.000 A 
ATOM     10  C   UNL     1      36.701  -1.975  16.059  0.00  0.00    +0.000 A 
ATOM     11  C   UNL     1      36.576  -0.638  15.794  0.00  0.00    +0.000 A 
ENDROOT
BRANCH   3  12
ATOM     12  C   UNL     1      36.239   3.464  14.951  0.00  0.00    +0.000 C 
ATOM     13  O   UNL     1      36.843   4.270  15.704  0.00  0.00    +0.000 OA
ATOM     14  N   UNL     1      35.452   3.947  13.896  0.00  0.00    +0.000 NA
BRANCH  14  15
ATOM     15  C   UNL     1      35.319   5.331  13.654  0.00  0.00    +0.000 A 
ATOM     16  C   UNL     1      34.343   6.056  14.282  0.00  0.00    +0.000 A 
ATOM     17  C   UNL     1      34.210   7.419  14.044  0.00  0.00    +0.000 A 
ATOM     18  C   UNL     1      35.055   8.056  13.177  0.00  0.00    +0.000 A 
ATOM     19  C   UNL     1      36.038   7.320  12.546  0.00  0.00    +0.000 A 
ATOM     20  C   UNL     1      36.177   5.947  12.781  0.00  0.00    +0.000 A 
BRANCH  20  21
ATOM     21  N   UNL     1      37.204   5.276  12.095  0.00  0.00    +0.000 N 
ATOM     22  C   UNL     1      36.971   4.562  10.868  0.00  0.00    +0.000 C 
ATOM     23  C   UNL     1      38.546   5.310  12.656  0.00  0.00    +0.000 C 
ENDBRANCH  20  21
ENDBRANCH  14  15
ENDBRANCH   3  12
BRANCH   1  25
ATOM     24  N   UNL     1      38.592  -1.160  13.268  0.00  0.00    +0.000 NA
ATOM     25  N   UNL     1      38.617  -0.829  14.491  0.00  0.00    +0.000 NA
BRANCH  24  31
ATOM     26  C   UNL     1      40.919  -3.129   9.335  0.00  0.00    +0.000 C 
ATOM     27  C   UNL     1      40.779  -2.910  10.792  0.00  0.00    +0.000 A 
ATOM     28  C   UNL     1      41.682  -3.475  11.679  0.00  0.00    +0.000 A 
ATOM     29  C   UNL     1      41.596  -3.303  13.045  0.00  0.00    +0.000 A 
ATOM     30  C   UNL     1      40.563  -2.532  13.535  0.00  0.00    +0.000 A 
ATOM     31  C   UNL     1      39.645  -1.952  12.689  0.00  0.00    +0.000 A 
ATOM     32  C   UNL     1      39.769  -2.150  11.351  0.00  0.00    +0.000 A 
ENDBRANCH  24  31
ENDBRANCH   1  25
TORSDOF 5
ENDMDL
MODEL 8
REMARK VINA RESULT:      -7.5     26.619     29.495
REMARK  Name = 
REMARK  5 active torsions:
REMARK  status: ('A' for Active; 'I' for Inactive)
REMARK    1  A    between atoms: C_6  and  N_7
REMARK    2  A    between atoms: N_8  and  C_9
REMARK    3  A    between atoms: C_11  and  C_12
REMARK    4  A    between atoms: N_14  and  C_15
REMARK    5  A    between atoms: C_20  and  N_21
REMARK                            x       y       z     vdW  Elec       q    Type
REMARK                         _______ _______ _______ _____ _____    ______ ____
ROOT
ATOM      1  C   UNL     1      37.647   4.413  16.475  0.00  0.00    +0.000 A 
ATOM      2  C   UNL     1      37.181   4.798  15.225  0.00  0.00    +0.000 A 
ATOM      3  C   UNL     1      37.472   6.044  14.729  0.00  0.00    +0.000 A 
ATOM      4  C   UNL     1      38.232   6.914  15.480  0.00  0.00    +0.000 A 
ATOM      5  O   UNL     1      38.523   8.160  14.986  0.00  0.00    +0.000 OA
ATOM      6  C   UNL     1      38.724   6.575  16.745  0.00  0.00    +0.000 A 
ATOM      7  C   UNL     1      39.478   7.455  17.479  0.00  0.00    +0.000 A 
ATOM      8  C   UNL     1      39.936   7.065  18.717  0.00  0.00    +0.000 A 
ATOM      9  C   UNL     1      39.615   5.806  19.166  0.00  0.00    +0.000 A 
ATOM     10  C   UNL     1      38.857   4.915  18.435  0.00  0.00    +0.000 A 
ATOM     11  C   UNL     1      38.408   5.314  17.205  0.00  0.00    +0.000 A 
ENDROOT
BRANCH   3  12
ATOM     12  C   UNL     1      37.005   6.490  13.423  0.00  0.00    +0.000 C 
ATOM     13  O   UNL     1      37.669   6.143  12.414  0.00  0.00    +0.000 OA
ATOM     14  N   UNL     1      35.857   7.280  13.268  0.00  0.00    +0.000 NA
BRANCH  14  15
ATOM     15  C   UNL     1      35.423   7.700  11.993  0.00  0.00    +0.000 A 
ATOM     16  C   UNL     1      34.590   6.911  11.248  0.00  0.00    +0.000 A 
ATOM     17  C   UNL     1      34.162   7.324   9.990  0.00  0.00    +0.000 A 
ATOM     18  C   UNL     1      34.568   8.526   9.481  0.00  0.00    +0.000 A 
ATOM     19  C   UNL     1      35.408   9.319  10.237  0.00  0.00    +0.000 A 
ATOM     20  C   UNL     1      35.843   8.910  11.504  0.00  0.00    +0.000 A 
BRANCH  20  21
ATOM     21  N   UNL     1      36.698   9.778  12.204  0.00  0.00    +0.000 N 
ATOM     22  C   UNL     1      36.215  10.685  13.212  0.00  0.00    +0.000 C 
ATOM     23  C   UNL     1      38.118   9.753  11.889  0.00  0.00    +0.000 C 
ENDBRANCH  20  21
ENDBRANCH  14  15
ENDBRANCH   3  12
BRANCH   1  25
ATOM     24  N   UNL     1      36.459   2.435  16.458  0.00  0.00    +0.000 NA
ATOM     25  N   UNL     1      37.361   3.130  17.013  0.00  0.00    +0.000 NA
BRANCH  24  31
ATOM     26  C   UNL     1      35.318  -2.353  15.720  0.00  0.00    +0.000 C 
ATOM     27  C   UNL     1      35.565  -1.192  16.605  0.00  0.00    +0.000 A 
ATOM     28  C   UNL     1      35.476  -1.326  17.982  0.00  0.00    +0.000 A 
ATOM     29  C   UNL     1      35.696  -0.278  18.851  0.00  0.00    +0.000 A 
ATOM     30  C   UNL     1      36.019   0.950  18.313  0.00  0.00    +0.000 A 
ATOM     31  C   UNL     1      36.119   1.126  16.951  0.00  0.00    +0.000 A 
ATOM     32  C   UNL     1      35.893   0.065  16.134  0.00  0.00    +0.000 A 
ENDBRANCH  24  31
ENDBRANCH   1  25
TORSDOF 5
ENDMDL
MODEL 9
REMARK VINA RESULT:      -7.4     24.212     26.601
REMARK  Name = 
REMARK  5 active torsions:
REMARK  status: ('A' for Active; 'I' for Inactive)
REMARK    1  A    between atoms: C_6  and  N_7
REMARK    2  A    between atoms: N_8  and  C_9
REMARK    3  A    between atoms: C_11  and  C_12
REMARK    4  A    between atoms: N_14  and  C_15
REMARK    5  A    between atoms: C_20  and  N_21
REMARK                            x       y       z     vdW  Elec       q    Type
REMARK                         _______ _______ _______ _____ _____    ______ ____
ROOT
ATOM      1  C   UNL     1      39.416   6.336  18.922  0.00  0.00    +0.000 A 
ATOM      2  C   UNL     1      40.714   5.988  19.273  0.00  0.00    +0.000 A 
ATOM      3  C   UNL     1      41.507   6.870  19.963  0.00  0.00    +0.000 A 
ATOM      4  C   UNL     1      41.008   8.108  20.306  0.00  0.00    +0.000 A 
ATOM      5  O   UNL     1      41.800   8.991  20.994  0.00  0.00    +0.000 OA
ATOM      6  C   UNL     1      39.709   8.508  19.975  0.00  0.00    +0.000 A 
ATOM      7  C   UNL     1      39.230   9.744  20.324  0.00  0.00    +0.000 A 
ATOM      8  C   UNL     1      37.943  10.082  19.972  0.00  0.00    +0.000 A 
ATOM      9  C   UNL     1      37.192   9.161  19.281  0.00  0.00    +0.000 A 
ATOM     10  C   UNL     1      37.665   7.915  18.926  0.00  0.00    +0.000 A 
ATOM     11  C   UNL     1      38.946   7.591  19.282  0.00  0.00    +0.000 A 
ENDROOT
BRANCH   3  12
ATOM     12  C   UNL     1      42.873   6.547  20.353  0.00  0.00    +0.000 C 
ATOM     13  O   UNL     1      43.767   6.623  19.473  0.00  0.00    +0.000 OA
ATOM     14  N   UNL     1      43.207   6.162  21.660  0.00  0.00    +0.000 NA
BRANCH  14  15
ATOM     15  C   UNL     1      44.538   5.854  22.016  0.00  0.00    +0.000 A 
ATOM     16  C   UNL     1      45.007   4.574  21.908  0.00  0.00    +0.000 A 
ATOM     17  C   UNL     1      46.318   4.269  22.259  0.00  0.00    +0.000 A 
ATOM     18  C   UNL     1      47.157   5.247  22.717  0.00  0.00    +0.000 A 
ATOM     19  C   UNL     1      46.678   6.538  22.824  0.00  0.00    +0.000 A 
ATOM     20  C   UNL     1      45.360   6.852  22.473  0.00  0.00    +0.000 A 
BRANCH  20  21
ATOM     21  N   UNL     1      44.956   8.190  22.613  0.00  0.00    +0.000 N 
ATOM     22  C   UNL     1      44.234   8.659  23.767  0.00  0.00    +0.000 C 
ATOM     23  C   UNL     1      45.283   9.125  21.548  0.00  0.00    +0.000 C 
ENDBRANCH  20  21
ENDBRANCH  14  15
ENDBRANCH   3  12
BRANCH   1  25
ATOM     24  N   UNL     1      39.032   4.889  17.167  0.00  0.00    +0.000 NA
ATOM     25  N   UNL     1      38.573   5.444  18.209  0.00  0.00    +0.000 NA
BRANCH  24  31
ATOM     26  C   UNL     1      34.932   2.145  16.520  0.00  0.00    +0.000 C 
ATOM     27  C   UNL     1      36.252   2.642  16.073  0.00  0.00    +0.000 A 
ATOM     28  C   UNL     1      36.785   2.232  14.860  0.00  0.00    +0.000 A 
ATOM     29  C   UNL     1      38.010   2.664  14.397  0.00  0.00    +0.000 A 
ATOM     30  C   UNL     1      38.725   3.542  15.185  0.00  0.00    +0.000 A 
ATOM     31  C   UNL     1      38.233   3.974  16.396  0.00  0.00    +0.000 A 
ATOM     32  C   UNL     1      37.022   3.521  16.811  0.00  0.00    +0.000 A 
ENDBRANCH  24  31
ENDBRANCH   1  25
TORSDOF 5
ENDMDL
MODEL 10
REMARK VINA RESULT:      -7.4     26.632     28.833
REMARK  Name = 
REMARK  5 active torsions:
REMARK  status: ('A' for Active; 'I' for Inactive)
REMARK    1  A    between atoms: C_6  and  N_7
REMARK    2  A    between atoms: N_8  and  C_9
REMARK    3  A    between atoms: C_11  and  C_12
REMARK    4  A    between atoms: N_14  and  C_15
REMARK    5  A    between atoms: C_20  and  N_21
REMARK                            x       y       z     vdW  Elec       q    Type
REMARK                         _______ _______ _______ _____ _____    ______ ____
ROOT
ATOM      1  C   UNL     1      38.547   5.318  15.931  0.00  0.00    +0.000 A 
ATOM      2  C   UNL     1      37.974   4.060  16.070  0.00  0.00    +0.000 A 
ATOM      3  C   UNL     1      36.788   3.765  15.446  0.00  0.00    +0.000 A 
ATOM      4  C   UNL     1      36.166   4.725  14.679  0.00  0.00    +0.000 A 
ATOM      5  O   UNL     1      34.980   4.432  14.056  0.00  0.00    +0.000 OA
ATOM      6  C   UNL     1      36.701   6.007  14.507  0.00  0.00    +0.000 A 
ATOM      7  C   UNL     1      36.067   6.950  13.740  0.00  0.00    +0.000 A 
ATOM      8  C   UNL     1      36.641   8.194  13.607  0.00  0.00    +0.000 A 
ATOM      9  C   UNL     1      37.830   8.437  14.254  0.00  0.00    +0.000 A 
ATOM     10  C   UNL     1      38.475   7.494  15.027  0.00  0.00    +0.000 A 
ATOM     11  C   UNL     1      37.893   6.261  15.151  0.00  0.00    +0.000 A 
ENDROOT
BRANCH   3  12
ATOM     12  C   UNL     1      36.151   2.460  15.563  0.00  0.00    +0.000 C 
ATOM     13  O   UNL     1      35.077   2.274  14.938  0.00  0.00    +0.000 OA
ATOM     14  N   UNL     1      36.698   1.428  16.339  0.00  0.00    +0.000 NA
BRANCH  14  15
ATOM     15  C   UNL     1      36.064   0.170  16.438  0.00  0.00    +0.000 A 
ATOM     16  C   UNL     1      35.010  -0.012  17.291  0.00  0.00    +0.000 A 
ATOM     17  C   UNL     1      34.386  -1.250  17.389  0.00  0.00    +0.000 A 
ATOM     18  C   UNL     1      34.817  -2.305  16.633  0.00  0.00    +0.000 A 
ATOM     19  C   UNL     1      35.881  -2.116  15.774  0.00  0.00    +0.000 A 
ATOM     20  C   UNL     1      36.515  -0.872  15.670  0.00  0.00    +0.000 A 
BRANCH  20  21
ATOM     21  N   UNL     1      37.590  -0.769  14.771  0.00  0.00    +0.000 N 
ATOM     22  C   UNL     1      37.410  -0.377  13.398  0.00  0.00    +0.000 C 
ATOM     23  C   UNL     1      38.927  -1.073  15.256  0.00  0.00    +0.000 C 
ENDBRANCH  20  21
ENDBRANCH  14  15
ENDBRANCH   3  12
BRANCH   1  25
ATOM     24  N   UNL     1      39.765   5.865  17.812  0.00  0.00    +0.000 NA
ATOM     25  N   UNL     1      39.773   5.651  16.564  0.00  0.00    +0.000 NA
BRANCH  24  31
ATOM     26  C   UNL     1      44.583   7.109  17.884  0.00  0.00    +0.000 C 
ATOM     27  C   UNL     1      43.303   6.809  18.565  0.00  0.00    +0.000 A 
ATOM     28  C   UNL     1      43.215   6.848  19.948  0.00  0.00    +0.000 A 
ATOM     29  C   UNL     1      42.048   6.576  20.631  0.00  0.00    +0.000 A 
ATOM     30  C   UNL     1      40.928   6.256  19.894  0.00  0.00    +0.000 A 
ATOM     31  C   UNL     1      40.971   6.207  18.518  0.00  0.00    +0.000 A 
ATOM     32  C   UNL     1      42.142   6.481  17.889  0.00  0.00    +0.000 A 
ENDBRANCH  24  31
ENDBRANCH   1  25
TORSDOF 5
ENDMDL
