MODEL 1
REMARK VINA RESULT:      -6.2      0.000      0.000
REMARK  Name = 
REMARK  4 active torsions:
REMARK  status: ('A' for Active; 'I' for Inactive)
REMARK    1  A    between atoms: C_6  and  C_7
REMARK    2  A    between atoms: N_8  and  N_9
REMARK    3  A    between atoms: C_10  and  C_12
REMARK    4  A    between atoms: C_14  and  C_15
REMARK                            x       y       z     vdW  Elec       q    Type
REMARK                         _______ _______ _______ _____ _____    ______ ____
ROOT
ATOM      1  N   UNL     1      30.477  26.828  18.726  0.00  0.00    +0.000 NA
ATOM      2  C   UNL     1      29.673  27.114  19.860  0.00  0.00    +0.000 C 
ATOM      3  O   UNL     1      29.053  28.245  20.040  0.00  0.00    +0.000 OA
ENDROOT
BRANCH   2   4
ATOM      4  C   UNL     1      29.488  26.203  21.007  0.00  0.00    +0.000 A 
ATOM      5  C   UNL     1      29.300  26.054  22.259  0.00  0.00    +0.000 A 
ATOM      6  C   UNL     1      29.283  24.673  22.632  0.00  0.00    +0.000 A 
ATOM      7  N   UNL     1      29.526  24.118  21.487  0.00  0.00    +0.000 NA
ATOM      8  N   UNL     1      29.631  24.810  20.511  0.00  0.00    +0.000 NA
BRANCH   6   9
ATOM      9  C   UNL     1      29.106  24.118  23.966  0.00  0.00    +0.000 C 
ATOM     10  C   UNL     1      27.724  23.395  23.861  0.00  0.00    +0.000 C 
ATOM     11  C   UNL     1      29.066  24.989  25.114  0.00  0.00    +0.000 C 
ATOM     12  C   UNL     1      30.068  22.959  24.185  0.00  0.00    +0.000 C 
ENDBRANCH   6   9
ENDBRANCH   2   4
BRANCH   1  14
ATOM     13  C   UNL     1      29.557  27.415  16.788  0.00  0.00    +0.000 C 
ATOM     14  N   UNL     1      30.514  28.061  17.773  0.00  0.00    +0.000 NA
BRANCH  13  20
ATOM     15  C   UNL     1      27.451  29.506  16.849  0.00  0.00    +0.000 C 
ATOM     16  N   UNL     1      28.532  29.470  15.936  0.00  0.00    +0.000 N 
ATOM     17  C   UNL     1      28.741  30.470  14.958  0.00  0.00    +0.000 A 
ATOM     18  C   UNL     1      29.773  30.032  14.035  0.00  0.00    +0.000 A 
ATOM     19  C   UNL     1      30.250  28.733  14.689  0.00  0.00    +0.000 A 
ATOM     20  C   UNL     1      29.473  28.485  15.759  0.00  0.00    +0.000 A 
ENDBRANCH  13  20
ENDBRANCH   1  14
TORSDOF 4
ENDMDL
MODEL 2
REMARK VINA RESULT:      -5.8      1.740      8.311
REMARK  Name = 
REMARK  4 active torsions:
REMARK  status: ('A' for Active; 'I' for Inactive)
REMARK    1  A    between atoms: C_6  and  C_7
REMARK    2  A    between atoms: N_8  and  N_9
REMARK    3  A    between atoms: C_10  and  C_12
REMARK    4  A    between atoms: C_14  and  C_15
REMARK                            x       y       z     vdW  Elec       q    Type
REMARK                         _______ _______ _______ _____ _____    ______ ____
ROOT
ATOM      1  N   UNL     1      29.664  24.672  20.918  0.00  0.00    +0.000 NA
ATOM      2  C   UNL     1      29.656  26.085  20.787  0.00  0.00    +0.000 C 
ATOM      3  O   UNL     1      29.667  26.904  21.799  0.00  0.00    +0.000 OA
ENDROOT
BRANCH   2   4
ATOM      4  C   UNL     1      29.568  26.807  19.502  0.00  0.00    +0.000 A 
ATOM      5  C   UNL     1      29.944  26.919  18.289  0.00  0.00    +0.000 A 
ATOM      6  C   UNL     1      29.353  28.056  17.654  0.00  0.00    +0.000 A 
ATOM      7  N   UNL     1      28.679  28.553  18.642  0.00  0.00    +0.000 NA
ATOM      8  N   UNL     1      28.672  27.976  19.695  0.00  0.00    +0.000 NA
BRANCH   6   9
ATOM      9  C   UNL     1      29.553  28.510  16.285  0.00  0.00    +0.000 C 
ATOM     10  C   UNL     1      31.107  28.658  16.192  0.00  0.00    +0.000 C 
ATOM     11  C   UNL     1      28.961  29.745  15.838  0.00  0.00    +0.000 C 
ATOM     12  C   UNL     1      29.272  27.377  15.309  0.00  0.00    +0.000 C 
ENDBRANCH   6   9
ENDBRANCH   2   4
BRANCH   1  14
ATOM     13  C   UNL     1      28.221  23.807  22.371  0.00  0.00    +0.000 C 
ATOM     14  N   UNL     1      29.664  24.275  22.424  0.00  0.00    +0.000 NA
BRANCH  13  20
ATOM     15  C   UNL     1      25.525  23.493  23.575  0.00  0.00    +0.000 C 
ATOM     16  N   UNL     1      26.743  23.157  24.213  0.00  0.00    +0.000 N 
ATOM     17  C   UNL     1      26.796  22.593  25.509  0.00  0.00    +0.000 A 
ATOM     18  C   UNL     1      28.172  22.586  25.975  0.00  0.00    +0.000 A 
ATOM     19  C   UNL     1      28.928  23.063  24.732  0.00  0.00    +0.000 A 
ATOM     20  C   UNL     1      28.028  23.380  23.783  0.00  0.00    +0.000 A 
ENDBRANCH  13  20
ENDBRANCH   1  14
TORSDOF 4
ENDMDL
MODEL 3
REMARK VINA RESULT:      -5.8     34.268     36.134
REMARK  Name = 
REMARK  4 active torsions:
REMARK  status: ('A' for Active; 'I' for Inactive)
REMARK    1  A    between atoms: C_6  and  C_7
REMARK    2  A    between atoms: N_8  and  N_9
REMARK    3  A    between atoms: C_10  and  C_12
REMARK    4  A    between atoms: C_14  and  C_15
REMARK                            x       y       z     vdW  Elec       q    Type
REMARK                         _______ _______ _______ _____ _____    ______ ____
ROOT
ATOM      1  N   UNL     1      22.750  -7.564  25.019  0.00  0.00    +0.000 NA
ATOM      2  C   UNL     1      23.533  -8.656  24.562  0.00  0.00    +0.000 C 
ATOM      3  O   UNL     1      23.256  -9.902  24.819  0.00  0.00    +0.000 OA
ENDROOT
BRANCH   2   4
ATOM      4  C   UNL     1      24.789  -8.523  23.798  0.00  0.00    +0.000 A 
ATOM      5  C   UNL     1      25.793  -9.085  23.248  0.00  0.00    +0.000 A 
ATOM      6  C   UNL     1      26.698  -8.128  22.692  0.00  0.00    +0.000 A 
ATOM      7  N   UNL     1      26.113  -7.025  23.036  0.00  0.00    +0.000 NA
ATOM      8  N   UNL     1      25.060  -7.075  23.612  0.00  0.00    +0.000 NA
BRANCH   6   9
ATOM      9  C   UNL     1      27.951  -8.391  22.000  0.00  0.00    +0.000 C 
ATOM     10  C   UNL     1      28.543  -6.959  21.794  0.00  0.00    +0.000 C 
ATOM     11  C   UNL     1      27.947  -9.058  20.722  0.00  0.00    +0.000 C 
ATOM     12  C   UNL     1      28.953  -9.028  22.951  0.00  0.00    +0.000 C 
ENDBRANCH   6   9
ENDBRANCH   2   4
BRANCH   1  14
ATOM     13  C   UNL     1      20.694  -6.884  25.526  0.00  0.00    +0.000 C 
ATOM     14  N   UNL     1      21.555  -8.085  25.874  0.00  0.00    +0.000 NA
BRANCH  13  20
ATOM     15  C   UNL     1      18.843  -4.784  26.514  0.00  0.00    +0.000 C 
ATOM     16  N   UNL     1      18.613  -6.178  26.608  0.00  0.00    +0.000 N 
ATOM     17  C   UNL     1      17.433  -6.722  27.166  0.00  0.00    +0.000 A 
ATOM     18  C   UNL     1      17.598  -8.155  27.337  0.00  0.00    +0.000 A 
ATOM     19  C   UNL     1      18.951  -8.399  26.662  0.00  0.00    +0.000 A 
ATOM     20  C   UNL     1      19.461  -7.211  26.291  0.00  0.00    +0.000 A 
ENDBRANCH  13  20
ENDBRANCH   1  14
TORSDOF 4
ENDMDL
MODEL 4
REMARK VINA RESULT:      -5.7      2.110      8.467
REMARK  Name = 
REMARK  4 active torsions:
REMARK  status: ('A' for Active; 'I' for Inactive)
REMARK    1  A    between atoms: C_6  and  C_7
REMARK    2  A    between atoms: N_8  and  N_9
REMARK    3  A    between atoms: C_10  and  C_12
REMARK    4  A    between atoms: C_14  and  C_15
REMARK                            x       y       z     vdW  Elec       q    Type
REMARK                         _______ _______ _______ _____ _____    ______ ____
ROOT
ATOM      1  N   UNL     1      29.598  24.615  20.953  0.00  0.00    +0.000 NA
ATOM      2  C   UNL     1      29.158  25.936  20.679  0.00  0.00    +0.000 C 
ATOM      3  O   UNL     1      28.080  26.459  21.190  0.00  0.00    +0.000 OA
ENDROOT
BRANCH   2   4
ATOM      4  C   UNL     1      29.820  26.862  19.739  0.00  0.00    +0.000 A 
ATOM      5  C   UNL     1      30.515  27.027  18.683  0.00  0.00    +0.000 A 
ATOM      6  C   UNL     1      30.813  28.407  18.455  0.00  0.00    +0.000 A 
ATOM      7  N   UNL     1      30.261  28.942  19.499  0.00  0.00    +0.000 NA
ATOM      8  N   UNL     1      29.663  28.241  20.268  0.00  0.00    +0.000 NA
BRANCH   6   9
ATOM      9  C   UNL     1      31.589  28.978  17.364  0.00  0.00    +0.000 C 
ATOM     10  C   UNL     1      33.042  28.495  17.680  0.00  0.00    +0.000 C 
ATOM     11  C   UNL     1      31.627  30.405  17.171  0.00  0.00    +0.000 C 
ATOM     12  C   UNL     1      31.278  28.253  16.063  0.00  0.00    +0.000 C 
ENDBRANCH   6   9
ENDBRANCH   2   4
BRANCH   1  14
ATOM     13  C   UNL     1      29.511  24.092  23.112  0.00  0.00    +0.000 C 
ATOM     14  N   UNL     1      28.597  23.906  21.914  0.00  0.00    +0.000 NA
BRANCH  13  20
ATOM     15  C   UNL     1      30.741  22.630  25.384  0.00  0.00    +0.000 C 
ATOM     16  N   UNL     1      29.356  22.887  25.239  0.00  0.00    +0.000 N 
ATOM     17  C   UNL     1      28.401  22.490  26.203  0.00  0.00    +0.000 A 
ATOM     18  C   UNL     1      27.066  22.677  25.662  0.00  0.00    +0.000 A 
ATOM     19  C   UNL     1      27.359  23.380  24.334  0.00  0.00    +0.000 A 
ATOM     20  C   UNL     1      28.693  23.442  24.172  0.00  0.00    +0.000 A 
ENDBRANCH  13  20
ENDBRANCH   1  14
TORSDOF 4
ENDMDL
MODEL 5
REMARK VINA RESULT:      -5.7      1.928      2.528
REMARK  Name = 
REMARK  4 active torsions:
REMARK  status: ('A' for Active; 'I' for Inactive)
REMARK    1  A    between atoms: C_6  and  C_7
REMARK    2  A    between atoms: N_8  and  N_9
REMARK    3  A    between atoms: C_10  and  C_12
REMARK    4  A    between atoms: C_14  and  C_15
REMARK                            x       y       z     vdW  Elec       q    Type
REMARK                         _______ _______ _______ _____ _____    ______ ____
ROOT
ATOM      1  N   UNL     1      29.363  26.839  20.841  0.00  0.00    +0.000 NA
ATOM      2  C   UNL     1      29.313  25.458  21.166  0.00  0.00    +0.000 C 
ATOM      3  O   UNL     1      29.815  24.520  20.415  0.00  0.00    +0.000 OA
ENDROOT
BRANCH   2   4
ATOM      4  C   UNL     1      28.635  24.901  22.353  0.00  0.00    +0.000 A 
ATOM      5  C   UNL     1      28.251  25.055  23.559  0.00  0.00    +0.000 A 
ATOM      6  C   UNL     1      27.630  23.874  24.072  0.00  0.00    +0.000 A 
ATOM      7  N   UNL     1      27.763  23.079  23.058  0.00  0.00    +0.000 NA
ATOM      8  N   UNL     1      28.259  23.497  22.048  0.00  0.00    +0.000 NA
BRANCH   6   9
ATOM      9  C   UNL     1      27.081  23.669  25.405  0.00  0.00    +0.000 C 
ATOM     10  C   UNL     1      25.698  23.002  25.113  0.00  0.00    +0.000 C 
ATOM     11  C   UNL     1      26.857  24.794  26.277  0.00  0.00    +0.000 C 
ATOM     12  C   UNL     1      27.837  22.559  26.121  0.00  0.00    +0.000 C 
ENDBRANCH   6   9
ENDBRANCH   2   4
BRANCH   1  14
ATOM     13  C   UNL     1      29.016  28.017  18.987  0.00  0.00    +0.000 C 
ATOM     14  N   UNL     1      30.073  27.039  19.468  0.00  0.00    +0.000 NA
BRANCH  13  20
ATOM     15  C   UNL     1      30.622  30.451  18.430  0.00  0.00    +0.000 C 
ATOM     16  N   UNL     1      30.365  29.417  17.498  0.00  0.00    +0.000 N 
ATOM     17  C   UNL     1      30.889  29.426  16.185  0.00  0.00    +0.000 A 
ATOM     18  C   UNL     1      30.260  28.372  15.408  0.00  0.00    +0.000 A 
ATOM     19  C   UNL     1      29.431  27.649  16.473  0.00  0.00    +0.000 A 
ATOM     20  C   UNL     1      29.540  28.327  17.630  0.00  0.00    +0.000 A 
ENDBRANCH  13  20
ENDBRANCH   1  14
TORSDOF 4
ENDMDL
MODEL 6
REMARK VINA RESULT:      -5.5      2.588      8.230
REMARK  Name = 
REMARK  4 active torsions:
REMARK  status: ('A' for Active; 'I' for Inactive)
REMARK    1  A    between atoms: C_6  and  C_7
REMARK    2  A    between atoms: N_8  and  N_9
REMARK    3  A    between atoms: C_10  and  C_12
REMARK    4  A    between atoms: C_14  and  C_15
REMARK                            x       y       z     vdW  Elec       q    Type
REMARK                         _______ _______ _______ _____ _____    ______ ____
ROOT
ATOM      1  N   UNL     1      27.871  26.211  21.427  0.00  0.00    +0.000 NA
ATOM      2  C   UNL     1      29.076  25.979  20.715  0.00  0.00    +0.000 C 
ATOM      3  O   UNL     1      29.721  24.847  20.734  0.00  0.00    +0.000 OA
ENDROOT
BRANCH   2   4
ATOM      4  C   UNL     1      29.788  26.998  19.918  0.00  0.00    +0.000 A 
ATOM      5  C   UNL     1      30.159  28.210  19.784  0.00  0.00    +0.000 A 
ATOM      6  C   UNL     1      30.856  28.418  18.553  0.00  0.00    +0.000 A 
ATOM      7  N   UNL     1      30.777  27.233  18.036  0.00  0.00    +0.000 NA
ATOM      8  N   UNL     1      30.256  26.353  18.665  0.00  0.00    +0.000 NA
BRANCH   6   9
ATOM      9  C   UNL     1      31.416  29.665  18.052  0.00  0.00    +0.000 C 
ATOM     10  C   UNL     1      30.334  30.719  18.456  0.00  0.00    +0.000 C 
ATOM     11  C   UNL     1      31.686  29.823  16.645  0.00  0.00    +0.000 C 
ATOM     12  C   UNL     1      32.612  30.082  18.894  0.00  0.00    +0.000 C 
ENDBRANCH   6   9
ENDBRANCH   2   4
BRANCH   1  14
ATOM     13  C   UNL     1      27.746  25.608  23.564  0.00  0.00    +0.000 C 
ATOM     14  N   UNL     1      27.471  24.937  22.231  0.00  0.00    +0.000 NA
BRANCH  13  20
ATOM     15  C   UNL     1      25.188  25.512  25.067  0.00  0.00    +0.000 C 
ATOM     16  N   UNL     1      26.162  24.485  25.056  0.00  0.00    +0.000 N 
ATOM     17  C   UNL     1      25.994  23.266  25.753  0.00  0.00    +0.000 A 
ATOM     18  C   UNL     1      27.247  22.531  25.746  0.00  0.00    +0.000 A 
ATOM     19  C   UNL     1      28.113  23.394  24.826  0.00  0.00    +0.000 A 
ATOM     20  C   UNL     1      27.415  24.496  24.494  0.00  0.00    +0.000 A 
ENDBRANCH  13  20
ENDBRANCH   1  14
TORSDOF 4
ENDMDL
MODEL 7
REMARK VINA RESULT:      -5.5     34.530     35.799
REMARK  Name = 
REMARK  4 active torsions:
REMARK  status: ('A' for Active; 'I' for Inactive)
REMARK    1  A    between atoms: C_6  and  C_7
REMARK    2  A    between atoms: N_8  and  N_9
REMARK    3  A    between atoms: C_10  and  C_12
REMARK    4  A    between atoms: C_14  and  C_15
REMARK                            x       y       z     vdW  Elec       q    Type
REMARK                         _______ _______ _______ _____ _____    ______ ____
ROOT
ATOM      1  N   UNL     1      23.750  -7.984  24.265  0.00  0.00    +0.000 NA
ATOM      2  C   UNL     1      22.770  -6.964  24.380  0.00  0.00    +0.000 C 
ATOM      3  O   UNL     1      22.929  -5.754  23.923  0.00  0.00    +0.000 OA
ENDROOT
BRANCH   2   4
ATOM      4  C   UNL     1      21.480  -7.117  25.082  0.00  0.00    +0.000 A 
ATOM      5  C   UNL     1      20.630  -7.885  25.640  0.00  0.00    +0.000 A 
ATOM      6  C   UNL     1      19.473  -7.166  26.078  0.00  0.00    +0.000 A 
ATOM      7  N   UNL     1      19.766  -5.975  25.661  0.00  0.00    +0.000 NA
ATOM      8  N   UNL     1      20.826  -5.784  25.132  0.00  0.00    +0.000 NA
BRANCH   6   9
ATOM      9  C   UNL     1      18.295  -7.704  26.742  0.00  0.00    +0.000 C 
ATOM     10  C   UNL     1      17.730  -8.711  25.688  0.00  0.00    +0.000 C 
ATOM     11  C   UNL     1      17.223  -6.826  27.138  0.00  0.00    +0.000 C 
ATOM     12  C   UNL     1      18.708  -8.621  27.884  0.00  0.00    +0.000 C 
ENDBRANCH   6   9
ENDBRANCH   2   4
BRANCH   1  14
ATOM     13  C   UNL     1      25.791  -8.715  23.772  0.00  0.00    +0.000 C 
ATOM     14  N   UNL     1      25.017  -7.429  23.548  0.00  0.00    +0.000 NA
BRANCH  13  20
ATOM     15  C   UNL     1      28.304 -10.176  24.376  0.00  0.00    +0.000 C 
ATOM     16  N   UNL     1      28.169  -9.165  23.395  0.00  0.00    +0.000 N 
ATOM     17  C   UNL     1      29.238  -8.762  22.561  0.00  0.00    +0.000 A 
ATOM     18  C   UNL     1      28.859  -7.560  21.840  0.00  0.00    +0.000 A 
ATOM     19  C   UNL     1      27.387  -7.408  22.232  0.00  0.00    +0.000 A 
ATOM     20  C   UNL     1      27.087  -8.359  23.135  0.00  0.00    +0.000 A 
ENDBRANCH  13  20
ENDBRANCH   1  14
TORSDOF 4
ENDMDL
MODEL 8
REMARK VINA RESULT:      -5.3     34.496     36.025
REMARK  Name = 
REMARK  4 active torsions:
REMARK  status: ('A' for Active; 'I' for Inactive)
REMARK    1  A    between atoms: C_6  and  C_7
REMARK    2  A    between atoms: N_8  and  N_9
REMARK    3  A    between atoms: C_10  and  C_12
REMARK    4  A    between atoms: C_14  and  C_15
REMARK                            x       y       z     vdW  Elec       q    Type
REMARK                         _______ _______ _______ _____ _____    ______ ____
ROOT
ATOM      1  N   UNL     1      23.029  -7.812  24.961  0.00  0.00    +0.000 NA
ATOM      2  C   UNL     1      23.817  -7.179  23.964  0.00  0.00    +0.000 C 
ATOM      3  O   UNL     1      23.729  -5.914  23.668  0.00  0.00    +0.000 OA
ENDROOT
BRANCH   2   4
ATOM      4  C   UNL     1      24.783  -7.876  23.092  0.00  0.00    +0.000 A 
ATOM      5  C   UNL     1      25.009  -8.785  22.227  0.00  0.00    +0.000 A 
ATOM      6  C   UNL     1      26.395  -8.857  21.883  0.00  0.00    +0.000 A 
ATOM      7  N   UNL     1      26.879  -7.951  22.672  0.00  0.00    +0.000 NA
ATOM      8  N   UNL     1      26.131  -7.315  23.363  0.00  0.00    +0.000 NA
BRANCH   6   9
ATOM      9  C   UNL     1      27.029  -9.772  20.946  0.00  0.00    +0.000 C 
ATOM     10  C   UNL     1      27.946  -8.827  20.103  0.00  0.00    +0.000 C 
ATOM     11  C   UNL     1      26.226 -10.544  20.031  0.00  0.00    +0.000 C 
ATOM     12  C   UNL     1      28.039 -10.651  21.669  0.00  0.00    +0.000 C 
ENDBRANCH   6   9
ENDBRANCH   2   4
BRANCH   1  14
ATOM     13  C   UNL     1      20.841  -7.644  25.318  0.00  0.00    +0.000 C 
ATOM     14  N   UNL     1      22.056  -6.781  25.607  0.00  0.00    +0.000 NA
BRANCH  13  20
ATOM     15  C   UNL     1      18.359  -8.777  26.487  0.00  0.00    +0.000 C 
ATOM     16  N   UNL     1      18.707  -7.405  26.497  0.00  0.00    +0.000 N 
ATOM     17  C   UNL     1      17.903  -6.417  27.111  0.00  0.00    +0.000 A 
ATOM     18  C   UNL     1      18.398  -5.100  26.748  0.00  0.00    +0.000 A 
ATOM     19  C   UNL     1      19.680  -5.445  25.986  0.00  0.00    +0.000 A 
ATOM     20  C   UNL     1      19.765  -6.783  25.879  0.00  0.00    +0.000 A 
ENDBRANCH  13  20
ENDBRANCH   1  14
TORSDOF 4
ENDMDL
MODEL 9
REMARK VINA RESULT:      -5.3     22.175     24.695
REMARK  Name = 
REMARK  4 active torsions:
REMARK  status: ('A' for Active; 'I' for Inactive)
REMARK    1  A    between atoms: C_6  and  C_7
REMARK    2  A    between atoms: N_8  and  N_9
REMARK    3  A    between atoms: C_10  and  C_12
REMARK    4  A    between atoms: C_14  and  C_15
REMARK                            x       y       z     vdW  Elec       q    Type
REMARK                         _______ _______ _______ _____ _____    ______ ____
ROOT
ATOM      1  N   UNL     1      22.791   2.821  16.199  0.00  0.00    +0.000 NA
ATOM      2  C   UNL     1      23.157   3.491  17.395  0.00  0.00    +0.000 C 
ATOM      3  O   UNL     1      22.409   3.527  18.461  0.00  0.00    +0.000 OA
ENDROOT
BRANCH   2   4
ATOM      4  C   UNL     1      24.390   4.283  17.569  0.00  0.00    +0.000 A 
ATOM      5  C   UNL     1      25.186   5.170  17.116  0.00  0.00    +0.000 A 
ATOM      6  C   UNL     1      26.320   5.349  17.968  0.00  0.00    +0.000 A 
ATOM      7  N   UNL     1      26.078   4.454  18.872  0.00  0.00    +0.000 NA
ATOM      8  N   UNL     1      25.062   3.818  18.809  0.00  0.00    +0.000 NA
BRANCH   6   9
ATOM      9  C   UNL     1      27.439   6.260  17.774  0.00  0.00    +0.000 C 
ATOM     10  C   UNL     1      28.626   5.293  17.459  0.00  0.00    +0.000 C 
ATOM     11  C   UNL     1      27.852   7.137  18.841  0.00  0.00    +0.000 C 
ATOM     12  C   UNL     1      27.278   7.021  16.466  0.00  0.00    +0.000 C 
ENDBRANCH   6   9
ENDBRANCH   2   4
BRANCH   1  14
ATOM     13  C   UNL     1      20.874   2.810  15.073  0.00  0.00    +0.000 C 
ATOM     14  N   UNL     1      21.381   2.177  16.356  0.00  0.00    +0.000 NA
BRANCH  13  20
ATOM     15  C   UNL     1      18.905   3.640  13.012  0.00  0.00    +0.000 C 
ATOM     16  N   UNL     1      18.678   2.652  14.000  0.00  0.00    +0.000 N 
ATOM     17  C   UNL     1      17.471   1.920  14.085  0.00  0.00    +0.000 A 
ATOM     18  C   UNL     1      17.450   1.168  15.327  0.00  0.00    +0.000 A 
ATOM     19  C   UNL     1      18.857   1.425  15.874  0.00  0.00    +0.000 A 
ATOM     20  C   UNL     1      19.478   2.295  15.058  0.00  0.00    +0.000 A 
ENDBRANCH  13  20
ENDBRANCH   1  14
TORSDOF 4
ENDMDL
MODEL 10
REMARK VINA RESULT:      -5.2     31.806     33.462
REMARK  Name = 
REMARK  4 active torsions:
REMARK  status: ('A' for Active; 'I' for Inactive)
REMARK    1  A    between atoms: C_6  and  C_7
REMARK    2  A    between atoms: N_8  and  N_9
REMARK    3  A    between atoms: C_10  and  C_12
REMARK    4  A    between atoms: C_14  and  C_15
REMARK                            x       y       z     vdW  Elec       q    Type
REMARK                         _______ _______ _______ _____ _____    ______ ____
ROOT
ATOM      1  N   UNL     1      19.002   4.327  41.635  0.00  0.00    +0.000 NA
ATOM      2  C   UNL     1      20.287   4.121  41.069  0.00  0.00    +0.000 C 
ATOM      3  O   UNL     1      20.924   5.023  40.378  0.00  0.00    +0.000 OA
ENDROOT
BRANCH   2   4
ATOM      4  C   UNL     1      21.037   2.851  41.131  0.00  0.00    +0.000 A 
ATOM      5  C   UNL     1      22.060   2.211  41.540  0.00  0.00    +0.000 A 
ATOM      6  C   UNL     1      22.065   0.861  41.068  0.00  0.00    +0.000 A 
ATOM      7  N   UNL     1      20.991   0.862  40.343  0.00  0.00    +0.000 NA
ATOM      8  N   UNL     1      20.314   1.853  40.301  0.00  0.00    +0.000 NA
BRANCH   6   9
ATOM      9  C   UNL     1      23.070  -0.161  41.318  0.00  0.00    +0.000 C 
ATOM     10  C   UNL     1      22.576  -1.357  40.441  0.00  0.00    +0.000 C 
ATOM     11  C   UNL     1      23.288  -0.652  42.656  0.00  0.00    +0.000 C 
ATOM     12  C   UNL     1      24.383   0.217  40.648  0.00  0.00    +0.000 C 
ENDBRANCH   6   9
ENDBRANCH   2   4
BRANCH   1  14
ATOM     13  C   UNL     1      17.489   5.750  42.430  0.00  0.00    +0.000 C 
ATOM     14  N   UNL     1      18.484   5.754  41.284  0.00  0.00    +0.000 NA
BRANCH  13  20
ATOM     15  C   UNL     1      17.849   7.948  44.392  0.00  0.00    +0.000 C 
ATOM     16  N   UNL     1      17.182   8.071  43.150  0.00  0.00    +0.000 N 
ATOM     17  C   UNL     1      16.636   9.292  42.694  0.00  0.00    +0.000 A 
ATOM     18  C   UNL     1      15.820   9.045  41.517  0.00  0.00    +0.000 A 
ATOM     19  C   UNL     1      16.090   7.562  41.253  0.00  0.00    +0.000 A 
ATOM     20  C   UNL     1      16.865   7.087  42.244  0.00  0.00    +0.000 A 
ENDBRANCH  13  20
ENDBRANCH   1  14
TORSDOF 4
ENDMDL
