MODEL 1
REMARK VINA RESULT:      -7.3      0.000      0.000
REMARK  Name = 
REMARK  10 active torsions:
REMARK  status: ('A' for Active; 'I' for Inactive)
REMARK    1  A    between atoms: C_2  and  C_3
REMARK    2  A    between atoms: C_3  and  N_4
REMARK    3  A    between atoms: N_4  and  C_5
REMARK    4  A    between atoms: N_4  and  C_8
REMARK    5  A    between atoms: C_5  and  C_6
REMARK    6  A    between atoms: C_8  and  C_9
REMARK    7  A    between atoms: C_9  and  C_11
REMARK    8  A    between atoms: C_11  and  N_12
REMARK    9  A    between atoms: C_13  and  C_14
REMARK   10  A    between atoms: C_20  and  C_21
REMARK                            x       y       z     vdW  Elec       q    Type
REMARK                         _______ _______ _______ _____ _____    ______ ____
ROOT
ATOM      1  N   UNL     1      36.890  -0.143  15.632  0.00  0.00    +0.000 N 
ATOM      2  C   UNL     1      37.880  -0.202  14.687  0.00  0.00    +0.000 A 
ATOM      3  C   UNL     1      38.784  -1.098  15.195  0.00  0.00    +0.000 A 
ATOM      4  C   UNL     1      38.372  -1.586  16.418  0.00  0.00    +0.000 A 
ATOM      5  C   UNL     1      38.895  -2.497  17.315  0.00  0.00    +0.000 A 
ATOM      6  C   UNL     1      38.266  -2.841  18.488  0.00  0.00    +0.000 A 
ATOM      7  C   UNL     1      38.834  -3.821  19.452  0.00  0.00    +0.000 C 
ATOM      8  C   UNL     1      37.060  -2.217  18.728  0.00  0.00    +0.000 A 
ATOM      9  C   UNL     1      36.527  -1.303  17.838  0.00  0.00    +0.000 A 
ATOM     10  C   UNL     1      35.205  -0.735  18.168  0.00  0.00    +0.000 C 
ATOM     11  C   UNL     1      37.156  -0.956  16.667  0.00  0.00    +0.000 A 
ENDROOT
BRANCH   2  12
ATOM     12  C   UNL     1      37.916   0.547  13.430  0.00  0.00    +0.000 A 
ATOM     13  C   UNL     1      37.149   0.218  12.336  0.00  0.00    +0.000 A 
ATOM     14  C   UNL     1      37.199   0.943  11.148  0.00  0.00    +0.000 A 
ATOM     15  C   UNL     1      38.030   2.032  11.020  0.00  0.00    +0.000 A 
ATOM     16  C   UNL     1      38.797   2.368  12.103  0.00  0.00    +0.000 A 
ATOM     17  C   UNL     1      38.748   1.649  13.283  0.00  0.00    +0.000 A 
ENDBRANCH   2  12
BRANCH   3  18
ATOM     18  C   UNL     1      40.019  -1.483  14.525  0.00  0.00    +0.000 A 
ATOM     19  C   UNL     1      40.036  -2.588  13.724  0.00  0.00    +0.000 A 
ATOM     20  C   UNL     1      41.143  -3.002  13.077  0.00  0.00    +0.000 A 
ATOM     21  C   UNL     1      42.310  -2.278  13.233  0.00  0.00    +0.000 A 
ATOM     22  C   UNL     1      42.323  -1.161  14.035  0.00  0.00    +0.000 A 
ATOM     23  C   UNL     1      41.173  -0.775  14.674  0.00  0.00    +0.000 A 
ENDBRANCH   3  18
BRANCH   1  24
ATOM     24  C   UNL     1      35.719   0.679  15.454  0.00  0.00    +0.000 C 
BRANCH  24  25
ATOM     25  C   UNL     1      35.933   1.997  16.438  0.00  0.00    +0.000 C 
ATOM     26  O   UNL     1      34.465   2.249  16.681  0.00  0.00    +0.000 OA
BRANCH  25  27
ATOM     27  C   UNL     1      35.962   3.041  15.112  0.00  0.00    +0.000 C 
BRANCH  27  28
ATOM     28  N   UNL     1      36.829   4.080  15.512  0.00  0.00    +0.000 NA
BRANCH  28  29
ATOM     29  C   UNL     1      37.812   3.756  16.475  0.00  0.00    +0.000 C 
BRANCH  29  31
ATOM     30  C   UNL     1      38.926   4.995  18.303  0.00  0.00    +0.000 C 
ATOM     31  C   UNL     1      38.292   4.992  17.133  0.00  0.00    +0.000 C 
ENDBRANCH  29  31
ENDBRANCH  28  29
BRANCH  28  32
ATOM     32  C   UNL     1      37.217   4.888  14.413  0.00  0.00    +0.000 C 
BRANCH  32  33
ATOM     33  C   UNL     1      36.190   4.670  13.334  0.00  0.00    +0.000 C 
ATOM     34  C   UNL     1      36.265   5.192  12.137  0.00  0.00    +0.000 C 
ENDBRANCH  32  33
ENDBRANCH  28  32
ENDBRANCH  27  28
ENDBRANCH  25  27
ENDBRANCH  24  25
ENDBRANCH   1  24
TORSDOF 10
ENDMDL
MODEL 2
REMARK VINA RESULT:      -7.3      0.215      1.970
REMARK  Name = 
REMARK  10 active torsions:
REMARK  status: ('A' for Active; 'I' for Inactive)
REMARK    1  A    between atoms: C_2  and  C_3
REMARK    2  A    between atoms: C_3  and  N_4
REMARK    3  A    between atoms: N_4  and  C_5
REMARK    4  A    between atoms: N_4  and  C_8
REMARK    5  A    between atoms: C_5  and  C_6
REMARK    6  A    between atoms: C_8  and  C_9
REMARK    7  A    between atoms: C_9  and  C_11
REMARK    8  A    between atoms: C_11  and  N_12
REMARK    9  A    between atoms: C_13  and  C_14
REMARK   10  A    between atoms: C_20  and  C_21
REMARK                            x       y       z     vdW  Elec       q    Type
REMARK                         _______ _______ _______ _____ _____    ______ ____
ROOT
ATOM      1  N   UNL     1      36.861  -0.248  15.704  0.00  0.00    +0.000 N 
ATOM      2  C   UNL     1      37.857  -0.276  14.764  0.00  0.00    +0.000 A 
ATOM      3  C   UNL     1      38.784  -1.146  15.275  0.00  0.00    +0.000 A 
ATOM      4  C   UNL     1      38.382  -1.647  16.495  0.00  0.00    +0.000 A 
ATOM      5  C   UNL     1      38.928  -2.543  17.393  0.00  0.00    +0.000 A 
ATOM      6  C   UNL     1      38.305  -2.908  18.563  0.00  0.00    +0.000 A 
ATOM      7  C   UNL     1      38.898  -3.871  19.529  0.00  0.00    +0.000 C 
ATOM      8  C   UNL     1      37.080  -2.320  18.799  0.00  0.00    +0.000 A 
ATOM      9  C   UNL     1      36.524  -1.421  17.908  0.00  0.00    +0.000 A 
ATOM     10  C   UNL     1      35.184  -0.893  18.232  0.00  0.00    +0.000 C 
ATOM     11  C   UNL     1      37.147  -1.054  16.739  0.00  0.00    +0.000 A 
ENDROOT
BRANCH   2  12
ATOM     12  C   UNL     1      37.876   0.475  13.507  0.00  0.00    +0.000 A 
ATOM     13  C   UNL     1      37.121   0.126  12.411  0.00  0.00    +0.000 A 
ATOM     14  C   UNL     1      37.155   0.853  11.224  0.00  0.00    +0.000 A 
ATOM     15  C   UNL     1      37.955   1.965  11.100  0.00  0.00    +0.000 A 
ATOM     16  C   UNL     1      38.709   2.321  12.185  0.00  0.00    +0.000 A 
ATOM     17  C   UNL     1      38.677   1.600  13.364  0.00  0.00    +0.000 A 
ENDBRANCH   2  12
BRANCH   3  18
ATOM     18  C   UNL     1      40.034  -1.493  14.610  0.00  0.00    +0.000 A 
ATOM     19  C   UNL     1      40.099  -2.621  13.844  0.00  0.00    +0.000 A 
ATOM     20  C   UNL     1      41.222  -3.003  13.204  0.00  0.00    +0.000 A 
ATOM     21  C   UNL     1      42.353  -2.220  13.329  0.00  0.00    +0.000 A 
ATOM     22  C   UNL     1      42.317  -1.077  14.095  0.00  0.00    +0.000 A 
ATOM     23  C   UNL     1      41.153  -0.727  14.728  0.00  0.00    +0.000 A 
ENDBRANCH   3  18
BRANCH   1  24
ATOM     24  C   UNL     1      35.667   0.539  15.522  0.00  0.00    +0.000 C 
BRANCH  24  25
ATOM     25  C   UNL     1      35.816   1.836  16.544  0.00  0.00    +0.000 C 
ATOM     26  O   UNL     1      34.336   2.019  16.781  0.00  0.00    +0.000 OA
BRANCH  25  27
ATOM     27  C   UNL     1      35.810   2.918  15.247  0.00  0.00    +0.000 C 
BRANCH  27  28
ATOM     28  N   UNL     1      36.950   3.720  15.464  0.00  0.00    +0.000 NA
BRANCH  28  29
ATOM     29  C   UNL     1      36.988   4.969  14.803  0.00  0.00    +0.000 C 
BRANCH  29  31
ATOM     30  C   UNL     1      36.528   5.296  12.396  0.00  0.00    +0.000 C 
ATOM     31  C   UNL     1      36.119   4.926  13.606  0.00  0.00    +0.000 C 
ENDBRANCH  29  31
ENDBRANCH  28  29
BRANCH  28  32
ATOM     32  C   UNL     1      37.371   3.672  16.818  0.00  0.00    +0.000 C 
BRANCH  32  33
ATOM     33  C   UNL     1      38.264   4.865  17.035  0.00  0.00    +0.000 C 
ATOM     34  C   UNL     1      38.937   5.084  18.134  0.00  0.00    +0.000 C 
ENDBRANCH  32  33
ENDBRANCH  28  32
ENDBRANCH  27  28
ENDBRANCH  25  27
ENDBRANCH  24  25
ENDBRANCH   1  24
TORSDOF 10
ENDMDL
MODEL 3
REMARK VINA RESULT:      -6.4      1.908      4.740
REMARK  Name = 
REMARK  10 active torsions:
REMARK  status: ('A' for Active; 'I' for Inactive)
REMARK    1  A    between atoms: C_2  and  C_3
REMARK    2  A    between atoms: C_3  and  N_4
REMARK    3  A    between atoms: N_4  and  C_5
REMARK    4  A    between atoms: N_4  and  C_8
REMARK    5  A    between atoms: C_5  and  C_6
REMARK    6  A    between atoms: C_8  and  C_9
REMARK    7  A    between atoms: C_9  and  C_11
REMARK    8  A    between atoms: C_11  and  N_12
REMARK    9  A    between atoms: C_13  and  C_14
REMARK   10  A    between atoms: C_20  and  C_21
REMARK                            x       y       z     vdW  Elec       q    Type
REMARK                         _______ _______ _______ _____ _____    ______ ____
ROOT
ATOM      1  N   UNL     1      39.204   0.157  14.771  0.00  0.00    +0.000 N 
ATOM      2  C   UNL     1      38.358  -0.687  15.442  0.00  0.00    +0.000 A 
ATOM      3  C   UNL     1      38.857  -1.939  15.191  0.00  0.00    +0.000 A 
ATOM      4  C   UNL     1      39.978  -1.881  14.391  0.00  0.00    +0.000 A 
ATOM      5  C   UNL     1      40.841  -2.828  13.876  0.00  0.00    +0.000 A 
ATOM      6  C   UNL     1      41.932  -2.508  13.102  0.00  0.00    +0.000 A 
ATOM      7  C   UNL     1      42.858  -3.531  12.547  0.00  0.00    +0.000 C 
ATOM      8  C   UNL     1      42.124  -1.164  12.861  0.00  0.00    +0.000 A 
ATOM      9  C   UNL     1      41.266  -0.207  13.371  0.00  0.00    +0.000 A 
ATOM     10  C   UNL     1      41.595   1.206  13.097  0.00  0.00    +0.000 C 
ATOM     11  C   UNL     1      40.174  -0.525  14.142  0.00  0.00    +0.000 A 
ENDROOT
BRANCH   2  12
ATOM     12  C   UNL     1      37.195  -0.288  16.236  0.00  0.00    +0.000 A 
ATOM     13  C   UNL     1      37.247  -0.086  17.596  0.00  0.00    +0.000 A 
ATOM     14  C   UNL     1      36.129   0.291  18.334  0.00  0.00    +0.000 A 
ATOM     15  C   UNL     1      34.910   0.481  17.723  0.00  0.00    +0.000 A 
ATOM     16  C   UNL     1      34.849   0.282  16.370  0.00  0.00    +0.000 A 
ATOM     17  C   UNL     1      35.958  -0.093  15.636  0.00  0.00    +0.000 A 
ENDBRANCH   2  12
BRANCH   3  18
ATOM     18  C   UNL     1      38.272  -3.170  15.707  0.00  0.00    +0.000 A 
ATOM     19  C   UNL     1      37.160  -3.691  15.109  0.00  0.00    +0.000 A 
ATOM     20  C   UNL     1      36.567  -4.823  15.536  0.00  0.00    +0.000 A 
ATOM     21  C   UNL     1      37.106  -5.484  16.622  0.00  0.00    +0.000 A 
ATOM     22  C   UNL     1      38.226  -4.982  17.245  0.00  0.00    +0.000 A 
ATOM     23  C   UNL     1      38.797  -3.827  16.778  0.00  0.00    +0.000 A 
ENDBRANCH   3  18
BRANCH   1  24
ATOM     24  C   UNL     1      39.037   1.588  14.812  0.00  0.00    +0.000 C 
BRANCH  24  25
ATOM     25  C   UNL     1      37.809   1.934  13.753  0.00  0.00    +0.000 C 
ATOM     26  O   UNL     1      38.694   2.486  12.662  0.00  0.00    +0.000 OA
BRANCH  25  27
ATOM     27  C   UNL     1      37.586   3.462  14.438  0.00  0.00    +0.000 C 
BRANCH  27  28
ATOM     28  N   UNL     1      36.542   3.272  15.369  0.00  0.00    +0.000 NA
BRANCH  28  29
ATOM     29  C   UNL     1      36.827   3.578  16.719  0.00  0.00    +0.000 C 
BRANCH  29  31
ATOM     30  C   UNL     1      38.583   4.814  17.945  0.00  0.00    +0.000 C 
ATOM     31  C   UNL     1      38.076   4.366  16.799  0.00  0.00    +0.000 C 
ENDBRANCH  29  31
ENDBRANCH  28  29
BRANCH  28  32
ATOM     32  C   UNL     1      35.293   3.688  14.842  0.00  0.00    +0.000 C 
BRANCH  32  33
ATOM     33  C   UNL     1      35.549   4.959  14.076  0.00  0.00    +0.000 C 
ATOM     34  C   UNL     1      34.692   5.942  13.983  0.00  0.00    +0.000 C 
ENDBRANCH  32  33
ENDBRANCH  28  32
ENDBRANCH  27  28
ENDBRANCH  25  27
ENDBRANCH  24  25
ENDBRANCH   1  24
TORSDOF 10
ENDMDL
MODEL 4
REMARK VINA RESULT:      -6.1      2.774      7.602
REMARK  Name = 
REMARK  10 active torsions:
REMARK  status: ('A' for Active; 'I' for Inactive)
REMARK    1  A    between atoms: C_2  and  C_3
REMARK    2  A    between atoms: C_3  and  N_4
REMARK    3  A    between atoms: N_4  and  C_5
REMARK    4  A    between atoms: N_4  and  C_8
REMARK    5  A    between atoms: C_5  and  C_6
REMARK    6  A    between atoms: C_8  and  C_9
REMARK    7  A    between atoms: C_9  and  C_11
REMARK    8  A    between atoms: C_11  and  N_12
REMARK    9  A    between atoms: C_13  and  C_14
REMARK   10  A    between atoms: C_20  and  C_21
REMARK                            x       y       z     vdW  Elec       q    Type
REMARK                         _______ _______ _______ _____ _____    ______ ____
ROOT
ATOM      1  N   UNL     1      39.234   3.375  13.753  0.00  0.00    +0.000 N 
ATOM      2  C   UNL     1      38.524   3.871  14.814  0.00  0.00    +0.000 A 
ATOM      3  C   UNL     1      39.326   4.854  15.333  0.00  0.00    +0.000 A 
ATOM      4  C   UNL     1      40.499   4.972  14.618  0.00  0.00    +0.000 A 
ATOM      5  C   UNL     1      41.604   5.795  14.713  0.00  0.00    +0.000 A 
ATOM      6  C   UNL     1      42.666   5.731  13.841  0.00  0.00    +0.000 A 
ATOM      7  C   UNL     1      43.855   6.618  13.949  0.00  0.00    +0.000 C 
ATOM      8  C   UNL     1      42.569   4.781  12.846  0.00  0.00    +0.000 A 
ATOM      9  C   UNL     1      41.468   3.952  12.741  0.00  0.00    +0.000 A 
ATOM     10  C   UNL     1      41.442   3.008  11.605  0.00  0.00    +0.000 C 
ATOM     11  C   UNL     1      40.407   4.013  13.613  0.00  0.00    +0.000 A 
ENDROOT
BRANCH   2  12
ATOM     12  C   UNL     1      37.204   3.415  15.256  0.00  0.00    +0.000 A 
ATOM     13  C   UNL     1      37.021   2.550  16.309  0.00  0.00    +0.000 A 
ATOM     14  C   UNL     1      35.757   2.128  16.713  0.00  0.00    +0.000 A 
ATOM     15  C   UNL     1      34.626   2.566  16.064  0.00  0.00    +0.000 A 
ATOM     16  C   UNL     1      34.798   3.428  15.014  0.00  0.00    +0.000 A 
ATOM     17  C   UNL     1      36.052   3.848  14.613  0.00  0.00    +0.000 A 
ENDBRANCH   2  12
BRANCH   3  18
ATOM     18  C   UNL     1      38.978   5.668  16.490  0.00  0.00    +0.000 A 
ATOM     19  C   UNL     1      38.341   6.861  16.309  0.00  0.00    +0.000 A 
ATOM     20  C   UNL     1      37.993   7.664  17.333  0.00  0.00    +0.000 A 
ATOM     21  C   UNL     1      38.294   7.263  18.621  0.00  0.00    +0.000 A 
ATOM     22  C   UNL     1      38.937   6.065  18.833  0.00  0.00    +0.000 A 
ATOM     23  C   UNL     1      39.272   5.279  17.762  0.00  0.00    +0.000 A 
ENDBRANCH   3  18
BRANCH   1  24
ATOM     24  C   UNL     1      38.710   2.330  12.911  0.00  0.00    +0.000 C 
BRANCH  24  25
ATOM     25  C   UNL     1      39.293   0.908  13.533  0.00  0.00    +0.000 C 
ATOM     26  O   UNL     1      39.625   0.279  12.202  0.00  0.00    +0.000 OA
BRANCH  25  27
ATOM     27  C   UNL     1      37.749   0.226  13.547  0.00  0.00    +0.000 C 
BRANCH  27  28
ATOM     28  N   UNL     1      37.908  -0.968  14.283  0.00  0.00    +0.000 NA
BRANCH  28  29
ATOM     29  C   UNL     1      38.735  -0.908  15.428  0.00  0.00    +0.000 C 
BRANCH  29  31
ATOM     30  C   UNL     1      39.410  -3.070  16.419  0.00  0.00    +0.000 C 
ATOM     31  C   UNL     1      39.577  -2.122  15.499  0.00  0.00    +0.000 C 
ENDBRANCH  29  31
ENDBRANCH  28  29
BRANCH  28  32
ATOM     32  C   UNL     1      36.688  -1.685  14.383  0.00  0.00    +0.000 C 
BRANCH  32  33
ATOM     33  C   UNL     1      36.011  -1.213  15.642  0.00  0.00    +0.000 C 
ATOM     34  C   UNL     1      35.148  -1.925  16.320  0.00  0.00    +0.000 C 
ENDBRANCH  32  33
ENDBRANCH  28  32
ENDBRANCH  27  28
ENDBRANCH  25  27
ENDBRANCH  24  25
ENDBRANCH   1  24
TORSDOF 10
ENDMDL
MODEL 5
REMARK VINA RESULT:      -6.1      2.126      5.265
REMARK  Name = 
REMARK  10 active torsions:
REMARK  status: ('A' for Active; 'I' for Inactive)
REMARK    1  A    between atoms: C_2  and  C_3
REMARK    2  A    between atoms: C_3  and  N_4
REMARK    3  A    between atoms: N_4  and  C_5
REMARK    4  A    between atoms: N_4  and  C_8
REMARK    5  A    between atoms: C_5  and  C_6
REMARK    6  A    between atoms: C_8  and  C_9
REMARK    7  A    between atoms: C_9  and  C_11
REMARK    8  A    between atoms: C_11  and  N_12
REMARK    9  A    between atoms: C_13  and  C_14
REMARK   10  A    between atoms: C_20  and  C_21
REMARK                            x       y       z     vdW  Elec       q    Type
REMARK                         _______ _______ _______ _____ _____    ______ ____
ROOT
ATOM      1  N   UNL     1      38.900   0.083  14.484  0.00  0.00    +0.000 N 
ATOM      2  C   UNL     1      37.968  -0.691  15.123  0.00  0.00    +0.000 A 
ATOM      3  C   UNL     1      38.179  -1.954  14.633  0.00  0.00    +0.000 A 
ATOM      4  C   UNL     1      39.211  -1.970  13.718  0.00  0.00    +0.000 A 
ATOM      5  C   UNL     1      39.815  -2.960  12.968  0.00  0.00    +0.000 A 
ATOM      6  C   UNL     1      40.872  -2.721  12.121  0.00  0.00    +0.000 A 
ATOM      7  C   UNL     1      41.518  -3.790  11.313  0.00  0.00    +0.000 C 
ATOM      8  C   UNL     1      41.306  -1.414  12.057  0.00  0.00    +0.000 A 
ATOM      9  C   UNL     1      40.709  -0.415  12.802  0.00  0.00    +0.000 A 
ATOM     10  C   UNL     1      41.288   0.940  12.699  0.00  0.00    +0.000 C 
ATOM     11  C   UNL     1      39.651  -0.651  13.648  0.00  0.00    +0.000 A 
ENDROOT
BRANCH   2  12
ATOM     12  C   UNL     1      36.987  -0.224  16.104  0.00  0.00    +0.000 A 
ATOM     13  C   UNL     1      37.179  -0.319  17.463  0.00  0.00    +0.000 A 
ATOM     14  C   UNL     1      36.232   0.129  18.380  0.00  0.00    +0.000 A 
ATOM     15  C   UNL     1      35.051   0.695  17.956  0.00  0.00    +0.000 A 
ATOM     16  C   UNL     1      34.852   0.795  16.606  0.00  0.00    +0.000 A 
ATOM     17  C   UNL     1      35.791   0.349  15.695  0.00  0.00    +0.000 A 
ENDBRANCH   2  12
BRANCH   3  18
ATOM     18  C   UNL     1      37.410  -3.125  15.032  0.00  0.00    +0.000 A 
ATOM     19  C   UNL     1      37.842  -3.893  16.075  0.00  0.00    +0.000 A 
ATOM     20  C   UNL     1      37.181  -4.991  16.494  0.00  0.00    +0.000 A 
ATOM     21  C   UNL     1      36.019  -5.353  15.841  0.00  0.00    +0.000 A 
ATOM     22  C   UNL     1      35.560  -4.598  14.786  0.00  0.00    +0.000 A 
ATOM     23  C   UNL     1      36.264  -3.490  14.393  0.00  0.00    +0.000 A 
ENDBRANCH   3  18
BRANCH   1  24
ATOM     24  C   UNL     1      39.028   1.493  14.753  0.00  0.00    +0.000 C 
BRANCH  24  25
ATOM     25  C   UNL     1      37.760   2.223  13.972  0.00  0.00    +0.000 C 
ATOM     26  O   UNL     1      38.499   2.480  12.681  0.00  0.00    +0.000 OA
BRANCH  25  27
ATOM     27  C   UNL     1      38.186   3.734  14.595  0.00  0.00    +0.000 C 
BRANCH  27  28
ATOM     28  N   UNL     1      37.048   4.136  15.327  0.00  0.00    +0.000 NA
BRANCH  28  29
ATOM     29  C   UNL     1      35.791   3.936  14.713  0.00  0.00    +0.000 C 
BRANCH  29  31
ATOM     30  C   UNL     1      34.514   5.951  14.063  0.00  0.00    +0.000 C 
ATOM     31  C   UNL     1      35.485   5.075  13.819  0.00  0.00    +0.000 C 
ENDBRANCH  29  31
ENDBRANCH  28  29
BRANCH  28  32
ATOM     32  C   UNL     1      37.174   3.817  16.703  0.00  0.00    +0.000 C 
BRANCH  32  33
ATOM     33  C   UNL     1      38.503   4.363  17.152  0.00  0.00    +0.000 C 
ATOM     34  C   UNL     1      38.668   5.101  18.220  0.00  0.00    +0.000 C 
ENDBRANCH  32  33
ENDBRANCH  28  32
ENDBRANCH  27  28
ENDBRANCH  25  27
ENDBRANCH  24  25
ENDBRANCH   1  24
TORSDOF 10
ENDMDL
MODEL 6
REMARK VINA RESULT:      -6.0      2.715      6.336
REMARK  Name = 
REMARK  10 active torsions:
REMARK  status: ('A' for Active; 'I' for Inactive)
REMARK    1  A    between atoms: C_2  and  C_3
REMARK    2  A    between atoms: C_3  and  N_4
REMARK    3  A    between atoms: N_4  and  C_5
REMARK    4  A    between atoms: N_4  and  C_8
REMARK    5  A    between atoms: C_5  and  C_6
REMARK    6  A    between atoms: C_8  and  C_9
REMARK    7  A    between atoms: C_9  and  C_11
REMARK    8  A    between atoms: C_11  and  N_12
REMARK    9  A    between atoms: C_13  and  C_14
REMARK   10  A    between atoms: C_20  and  C_21
REMARK                            x       y       z     vdW  Elec       q    Type
REMARK                         _______ _______ _______ _____ _____    ______ ____
ROOT
ATOM      1  N   UNL     1      38.638   0.368  12.941  0.00  0.00    +0.000 N 
ATOM      2  C   UNL     1      38.941  -0.884  13.406  0.00  0.00    +0.000 A 
ATOM      3  C   UNL     1      38.122  -1.053  14.491  0.00  0.00    +0.000 A 
ATOM      4  C   UNL     1      37.330   0.056  14.699  0.00  0.00    +0.000 A 
ATOM      5  C   UNL     1      36.353   0.381  15.619  0.00  0.00    +0.000 A 
ATOM      6  C   UNL     1      35.673   1.576  15.602  0.00  0.00    +0.000 A 
ATOM      7  C   UNL     1      34.623   1.923  16.597  0.00  0.00    +0.000 C 
ATOM      8  C   UNL     1      36.024   2.453  14.597  0.00  0.00    +0.000 A 
ATOM      9  C   UNL     1      37.001   2.139  13.671  0.00  0.00    +0.000 A 
ATOM     10  C   UNL     1      37.260   3.127  12.605  0.00  0.00    +0.000 C 
ATOM     11  C   UNL     1      37.684   0.946  13.688  0.00  0.00    +0.000 A 
ENDROOT
BRANCH   2  12
ATOM     12  C   UNL     1      39.930  -1.800  12.833  0.00  0.00    +0.000 A 
ATOM     13  C   UNL     1      39.793  -2.370  11.588  0.00  0.00    +0.000 A 
ATOM     14  C   UNL     1      40.744  -3.240  11.062  0.00  0.00    +0.000 A 
ATOM     15  C   UNL     1      41.875  -3.566  11.775  0.00  0.00    +0.000 A 
ATOM     16  C   UNL     1      42.021  -3.002  13.014  0.00  0.00    +0.000 A 
ATOM     17  C   UNL     1      41.077  -2.139  13.538  0.00  0.00    +0.000 A 
ENDBRANCH   2  12
BRANCH   3  18
ATOM     18  C   UNL     1      38.095  -2.254  15.317  0.00  0.00    +0.000 A 
ATOM     19  C   UNL     1      38.895  -2.331  16.421  0.00  0.00    +0.000 A 
ATOM     20  C   UNL     1      38.923  -3.411  17.226  0.00  0.00    +0.000 A 
ATOM     21  C   UNL     1      38.108  -4.485  16.921  0.00  0.00    +0.000 A 
ATOM     22  C   UNL     1      37.292  -4.435  15.814  0.00  0.00    +0.000 A 
ATOM     23  C   UNL     1      37.296  -3.316  15.023  0.00  0.00    +0.000 A 
ENDBRANCH   3  18
BRANCH   1  24
ATOM     24  C   UNL     1      39.272   0.917  11.769  0.00  0.00    +0.000 C 
BRANCH  24  25
ATOM     25  C   UNL     1      40.654   1.660  12.304  0.00  0.00    +0.000 C 
ATOM     26  O   UNL     1      40.482   2.917  11.487  0.00  0.00    +0.000 OA
BRANCH  25  27
ATOM     27  C   UNL     1      41.575   0.921  11.097  0.00  0.00    +0.000 C 
BRANCH  27  28
ATOM     28  N   UNL     1      42.724   0.461  11.775  0.00  0.00    +0.000 NA
BRANCH  28  29
ATOM     29  C   UNL     1      43.911   0.347  11.016  0.00  0.00    +0.000 C 
BRANCH  29  31
ATOM     30  C   UNL     1      44.698  -1.871  10.260  0.00  0.00    +0.000 C 
ATOM     31  C   UNL     1      43.842  -0.858  10.160  0.00  0.00    +0.000 C 
ENDBRANCH  29  31
ENDBRANCH  28  29
BRANCH  28  32
ATOM     32  C   UNL     1      42.819   1.018  13.077  0.00  0.00    +0.000 C 
BRANCH  32  33
ATOM     33  C   UNL     1      44.054   0.433  13.708  0.00  0.00    +0.000 C 
ATOM     34  C   UNL     1      44.042  -0.324  14.774  0.00  0.00    +0.000 C 
ENDBRANCH  32  33
ENDBRANCH  28  32
ENDBRANCH  27  28
ENDBRANCH  25  27
ENDBRANCH  24  25
ENDBRANCH   1  24
TORSDOF 10
ENDMDL
MODEL 7
REMARK VINA RESULT:      -6.0      1.975      4.923
REMARK  Name = 
REMARK  10 active torsions:
REMARK  status: ('A' for Active; 'I' for Inactive)
REMARK    1  A    between atoms: C_2  and  C_3
REMARK    2  A    between atoms: C_3  and  N_4
REMARK    3  A    between atoms: N_4  and  C_5
REMARK    4  A    between atoms: N_4  and  C_8
REMARK    5  A    between atoms: C_5  and  C_6
REMARK    6  A    between atoms: C_8  and  C_9
REMARK    7  A    between atoms: C_9  and  C_11
REMARK    8  A    between atoms: C_11  and  N_12
REMARK    9  A    between atoms: C_13  and  C_14
REMARK   10  A    between atoms: C_20  and  C_21
REMARK                            x       y       z     vdW  Elec       q    Type
REMARK                         _______ _______ _______ _____ _____    ______ ____
ROOT
ATOM      1  N   UNL     1      37.270   0.077  14.410  0.00  0.00    +0.000 N 
ATOM      2  C   UNL     1      37.059  -0.852  15.394  0.00  0.00    +0.000 A 
ATOM      3  C   UNL     1      37.727  -1.967  14.959  0.00  0.00    +0.000 A 
ATOM      4  C   UNL     1      38.337  -1.743  13.743  0.00  0.00    +0.000 A 
ATOM      5  C   UNL     1      39.123  -2.510  12.905  0.00  0.00    +0.000 A 
ATOM      6  C   UNL     1      39.645  -2.038  11.724  0.00  0.00    +0.000 A 
ATOM      7  C   UNL     1      40.489  -2.869  10.824  0.00  0.00    +0.000 C 
ATOM      8  C   UNL     1      39.337  -0.731  11.411  0.00  0.00    +0.000 A 
ATOM      9  C   UNL     1      38.552   0.047  12.241  0.00  0.00    +0.000 A 
ATOM     10  C   UNL     1      38.329   1.450  11.838  0.00  0.00    +0.000 C 
ATOM     11  C   UNL     1      38.027  -0.424  13.421  0.00  0.00    +0.000 A 
ENDROOT
BRANCH   2  12
ATOM     12  C   UNL     1      36.285  -0.649  16.620  0.00  0.00    +0.000 A 
ATOM     13  C   UNL     1      34.910  -0.672  16.652  0.00  0.00    +0.000 A 
ATOM     14  C   UNL     1      34.191  -0.474  17.828  0.00  0.00    +0.000 A 
ATOM     15  C   UNL     1      34.838  -0.247  19.021  0.00  0.00    +0.000 A 
ATOM     16  C   UNL     1      36.207  -0.223  18.999  0.00  0.00    +0.000 A 
ATOM     17  C   UNL     1      36.921  -0.418  17.832  0.00  0.00    +0.000 A 
ENDBRANCH   2  12
BRANCH   3  18
ATOM     18  C   UNL     1      37.782  -3.226  15.691  0.00  0.00    +0.000 A 
ATOM     19  C   UNL     1      36.787  -4.145  15.527  0.00  0.00    +0.000 A 
ATOM     20  C   UNL     1      36.773  -5.327  16.175  0.00  0.00    +0.000 A 
ATOM     21  C   UNL     1      37.809  -5.620  17.040  0.00  0.00    +0.000 A 
ATOM     22  C   UNL     1      38.826  -4.711  17.225  0.00  0.00    +0.000 A 
ATOM     23  C   UNL     1      38.800  -3.521  16.546  0.00  0.00    +0.000 A 
ENDBRANCH   3  18
BRANCH   1  24
ATOM     24  C   UNL     1      36.749   1.417  14.509  0.00  0.00    +0.000 C 
BRANCH  24  25
ATOM     25  C   UNL     1      37.906   2.299  15.305  0.00  0.00    +0.000 C 
ATOM     26  O   UNL     1      37.088   2.542  16.550  0.00  0.00    +0.000 OA
BRANCH  25  27
ATOM     27  C   UNL     1      37.371   3.733  14.591  0.00  0.00    +0.000 C 
BRANCH  27  28
ATOM     28  N   UNL     1      38.459   4.619  14.744  0.00  0.00    +0.000 NA
BRANCH  28  29
ATOM     29  C   UNL     1      38.350   5.595  15.760  0.00  0.00    +0.000 C 
BRANCH  29  31
ATOM     30  C   UNL     1      38.963   5.127  18.109  0.00  0.00    +0.000 C 
ATOM     31  C   UNL     1      39.319   5.302  16.839  0.00  0.00    +0.000 C 
ENDBRANCH  29  31
ENDBRANCH  28  29
BRANCH  28  32
ATOM     32  C   UNL     1      39.701   3.949  14.597  0.00  0.00    +0.000 C 
BRANCH  32  33
ATOM     33  C   UNL     1      40.348   4.507  13.357  0.00  0.00    +0.000 C 
ATOM     34  C   UNL     1      41.628   4.423  13.099  0.00  0.00    +0.000 C 
ENDBRANCH  32  33
ENDBRANCH  28  32
ENDBRANCH  27  28
ENDBRANCH  25  27
ENDBRANCH  24  25
ENDBRANCH   1  24
TORSDOF 10
ENDMDL
MODEL 8
REMARK VINA RESULT:      -6.0      2.787      6.131
REMARK  Name = 
REMARK  10 active torsions:
REMARK  status: ('A' for Active; 'I' for Inactive)
REMARK    1  A    between atoms: C_2  and  C_3
REMARK    2  A    between atoms: C_3  and  N_4
REMARK    3  A    between atoms: N_4  and  C_5
REMARK    4  A    between atoms: N_4  and  C_8
REMARK    5  A    between atoms: C_5  and  C_6
REMARK    6  A    between atoms: C_8  and  C_9
REMARK    7  A    between atoms: C_9  and  C_11
REMARK    8  A    between atoms: C_11  and  N_12
REMARK    9  A    between atoms: C_13  and  C_14
REMARK   10  A    between atoms: C_20  and  C_21
REMARK                            x       y       z     vdW  Elec       q    Type
REMARK                         _______ _______ _______ _____ _____    ______ ____
ROOT
ATOM      1  N   UNL     1      39.010   0.503  13.341  0.00  0.00    +0.000 N 
ATOM      2  C   UNL     1      39.293  -0.738  13.850  0.00  0.00    +0.000 A 
ATOM      3  C   UNL     1      38.336  -0.940  14.810  0.00  0.00    +0.000 A 
ATOM      4  C   UNL     1      37.481   0.138  14.899  0.00  0.00    +0.000 A 
ATOM      5  C   UNL     1      36.372   0.423  15.672  0.00  0.00    +0.000 A 
ATOM      6  C   UNL     1      35.655   1.591  15.554  0.00  0.00    +0.000 A 
ATOM      7  C   UNL     1      34.463   1.895  16.390  0.00  0.00    +0.000 C 
ATOM      8  C   UNL     1      36.111   2.482  14.605  0.00  0.00    +0.000 A 
ATOM      9  C   UNL     1      37.219   2.207  13.827  0.00  0.00    +0.000 A 
ATOM     10  C   UNL     1      37.588   3.206  12.804  0.00  0.00    +0.000 C 
ATOM     11  C   UNL     1      37.938   1.042  13.945  0.00  0.00    +0.000 A 
ENDROOT
BRANCH   2  12
ATOM     12  C   UNL     1      40.387  -1.613  13.425  0.00  0.00    +0.000 A 
ATOM     13  C   UNL     1      41.677  -1.480  13.885  0.00  0.00    +0.000 A 
ATOM     14  C   UNL     1      42.705  -2.322  13.467  0.00  0.00    +0.000 A 
ATOM     15  C   UNL     1      42.466  -3.335  12.567  0.00  0.00    +0.000 A 
ATOM     16  C   UNL     1      41.185  -3.476  12.105  0.00  0.00    +0.000 A 
ATOM     17  C   UNL     1      40.164  -2.640  12.518  0.00  0.00    +0.000 A 
ENDBRANCH   2  12
BRANCH   3  18
ATOM     18  C   UNL     1      38.240  -2.141  15.629  0.00  0.00    +0.000 A 
ATOM     19  C   UNL     1      38.895  -2.197  16.825  0.00  0.00    +0.000 A 
ATOM     20  C   UNL     1      38.852  -3.277  17.630  0.00  0.00    +0.000 A 
ATOM     21  C   UNL     1      38.114  -4.373  17.227  0.00  0.00    +0.000 A 
ATOM     22  C   UNL     1      37.445  -4.346  16.026  0.00  0.00    +0.000 A 
ATOM     23  C   UNL     1      37.516  -3.227  15.238  0.00  0.00    +0.000 A 
ENDBRANCH   3  18
BRANCH   1  24
ATOM     24  C   UNL     1      39.781   1.077  12.268  0.00  0.00    +0.000 C 
BRANCH  24  25
ATOM     25  C   UNL     1      38.986   0.675  10.869  0.00  0.00    +0.000 C 
ATOM     26  O   UNL     1      40.074  -0.217  10.322  0.00  0.00    +0.000 OA
BRANCH  25  27
ATOM     27  C   UNL     1      39.604   2.030  10.074  0.00  0.00    +0.000 C 
BRANCH  27  28
ATOM     28  N   UNL     1      38.712   2.232   8.998  0.00  0.00    +0.000 NA
BRANCH  28  29
ATOM     29  C   UNL     1      39.180   1.894   7.708  0.00  0.00    +0.000 C 
BRANCH  29  31
ATOM     30  C   UNL     1      38.048   0.558   5.963  0.00  0.00    +0.000 C 
ATOM     31  C   UNL     1      38.467   0.694   7.219  0.00  0.00    +0.000 C 
ENDBRANCH  29  31
ENDBRANCH  28  29
BRANCH  28  32
ATOM     32  C   UNL     1      37.387   1.861   9.343  0.00  0.00    +0.000 C 
BRANCH  32  33
ATOM     33  C   UNL     1      36.540   3.096   9.192  0.00  0.00    +0.000 C 
ATOM     34  C   UNL     1      35.775   3.337   8.159  0.00  0.00    +0.000 C 
ENDBRANCH  32  33
ENDBRANCH  28  32
ENDBRANCH  27  28
ENDBRANCH  25  27
ENDBRANCH  24  25
ENDBRANCH   1  24
TORSDOF 10
ENDMDL
MODEL 9
REMARK VINA RESULT:      -5.9     25.257     28.846
REMARK  Name = 
REMARK  10 active torsions:
REMARK  status: ('A' for Active; 'I' for Inactive)
REMARK    1  A    between atoms: C_2  and  C_3
REMARK    2  A    between atoms: C_3  and  N_4
REMARK    3  A    between atoms: N_4  and  C_5
REMARK    4  A    between atoms: N_4  and  C_8
REMARK    5  A    between atoms: C_5  and  C_6
REMARK    6  A    between atoms: C_8  and  C_9
REMARK    7  A    between atoms: C_9  and  C_11
REMARK    8  A    between atoms: C_11  and  N_12
REMARK    9  A    between atoms: C_13  and  C_14
REMARK   10  A    between atoms: C_20  and  C_21
REMARK                            x       y       z     vdW  Elec       q    Type
REMARK                         _______ _______ _______ _____ _____    ______ ____
ROOT
ATOM      1  N   UNL     1      28.910  15.967  37.874  0.00  0.00    +0.000 N 
ATOM      2  C   UNL     1      27.680  15.895  37.273  0.00  0.00    +0.000 A 
ATOM      3  C   UNL     1      27.957  15.882  35.931  0.00  0.00    +0.000 A 
ATOM      4  C   UNL     1      29.314  15.943  35.699  0.00  0.00    +0.000 A 
ATOM      5  C   UNL     1      30.096  15.943  34.560  0.00  0.00    +0.000 A 
ATOM      6  C   UNL     1      31.470  15.989  34.591  0.00  0.00    +0.000 A 
ATOM      7  C   UNL     1      32.307  15.991  33.362  0.00  0.00    +0.000 C 
ATOM      8  C   UNL     1      32.040  16.036  35.846  0.00  0.00    +0.000 A 
ATOM      9  C   UNL     1      31.269  16.037  36.992  0.00  0.00    +0.000 A 
ATOM     10  C   UNL     1      31.983  16.035  38.285  0.00  0.00    +0.000 C 
ATOM     11  C   UNL     1      29.895  15.994  36.963  0.00  0.00    +0.000 A 
ENDROOT
BRANCH   2  12
ATOM     12  C   UNL     1      26.388  15.844  37.959  0.00  0.00    +0.000 A 
ATOM     13  C   UNL     1      25.720  14.670  38.218  0.00  0.00    +0.000 A 
ATOM     14  C   UNL     1      24.490  14.643  38.870  0.00  0.00    +0.000 A 
ATOM     15  C   UNL     1      23.888  15.807  39.290  0.00  0.00    +0.000 A 
ATOM     16  C   UNL     1      24.545  16.980  39.038  0.00  0.00    +0.000 A 
ATOM     17  C   UNL     1      25.766  17.008  38.389  0.00  0.00    +0.000 A 
ENDBRANCH   2  12
BRANCH   3  18
ATOM     18  C   UNL     1      26.942  15.813  34.888  0.00  0.00    +0.000 A 
ATOM     19  C   UNL     1      26.388  16.965  34.408  0.00  0.00    +0.000 A 
ATOM     20  C   UNL     1      25.444  16.974  33.447  0.00  0.00    +0.000 A 
ATOM     21  C   UNL     1      25.019  15.768  32.925  0.00  0.00    +0.000 A 
ATOM     22  C   UNL     1      25.559  14.590  33.390  0.00  0.00    +0.000 A 
ATOM     23  C   UNL     1      26.517  14.628  34.369  0.00  0.00    +0.000 A 
ENDBRANCH   3  18
BRANCH   1  24
ATOM     24  C   UNL     1      29.054  15.969  39.308  0.00  0.00    +0.000 C 
BRANCH  24  25
ATOM     25  C   UNL     1      28.653  14.440  39.809  0.00  0.00    +0.000 C 
ATOM     26  O   UNL     1      28.161  14.848  41.177  0.00  0.00    +0.000 OA
BRANCH  25  27
ATOM     27  C   UNL     1      30.218  14.165  40.379  0.00  0.00    +0.000 C 
BRANCH  27  28
ATOM     28  N   UNL     1      30.496  12.837  39.991  0.00  0.00    +0.000 NA
BRANCH  28  29
ATOM     29  C   UNL     1      31.723  12.609  39.327  0.00  0.00    +0.000 C 
BRANCH  29  31
ATOM     30  C   UNL     1      32.415  12.458  36.959  0.00  0.00    +0.000 C 
ATOM     31  C   UNL     1      31.473  12.350  37.892  0.00  0.00    +0.000 C 
ENDBRANCH  29  31
ENDBRANCH  28  29
BRANCH  28  32
ATOM     32  C   UNL     1      30.096  11.909  40.986  0.00  0.00    +0.000 C 
BRANCH  32  33
ATOM     33  C   UNL     1      29.393  10.786  40.272  0.00  0.00    +0.000 C 
ATOM     34  C   UNL     1      28.276  10.244  40.682  0.00  0.00    +0.000 C 
ENDBRANCH  32  33
ENDBRANCH  28  32
ENDBRANCH  27  28
ENDBRANCH  25  27
ENDBRANCH  24  25
ENDBRANCH   1  24
TORSDOF 10
ENDMDL
MODEL 10
REMARK VINA RESULT:      -5.9     25.516     30.138
REMARK  Name = 
REMARK  10 active torsions:
REMARK  status: ('A' for Active; 'I' for Inactive)
REMARK    1  A    between atoms: C_2  and  C_3
REMARK    2  A    between atoms: C_3  and  N_4
REMARK    3  A    between atoms: N_4  and  C_5
REMARK    4  A    between atoms: N_4  and  C_8
REMARK    5  A    between atoms: C_5  and  C_6
REMARK    6  A    between atoms: C_8  and  C_9
REMARK    7  A    between atoms: C_9  and  C_11
REMARK    8  A    between atoms: C_11  and  N_12
REMARK    9  A    between atoms: C_13  and  C_14
REMARK   10  A    between atoms: C_20  and  C_21
REMARK                            x       y       z     vdW  Elec       q    Type
REMARK                         _______ _______ _______ _____ _____    ______ ____
ROOT
ATOM      1  N   UNL     1      25.172  16.526  35.270  0.00  0.00    +0.000 N 
ATOM      2  C   UNL     1      25.175  17.089  36.519  0.00  0.00    +0.000 A 
ATOM      3  C   UNL     1      24.830  18.398  36.305  0.00  0.00    +0.000 A 
ATOM      4  C   UNL     1      24.617  18.647  34.966  0.00  0.00    +0.000 A 
ATOM      5  C   UNL     1      24.245  19.764  34.243  0.00  0.00    +0.000 A 
ATOM      6  C   UNL     1      24.071  19.752  32.879  0.00  0.00    +0.000 A 
ATOM      7  C   UNL     1      23.673  20.958  32.105  0.00  0.00    +0.000 C 
ATOM      8  C   UNL     1      24.293  18.542  32.256  0.00  0.00    +0.000 A 
ATOM      9  C   UNL     1      24.666  17.418  32.969  0.00  0.00    +0.000 A 
ATOM     10  C   UNL     1      24.823  16.161  32.209  0.00  0.00    +0.000 C 
ATOM     11  C   UNL     1      24.842  17.428  34.332  0.00  0.00    +0.000 A 
ENDROOT
BRANCH   2  12
ATOM     12  C   UNL     1      25.485  16.399  37.773  0.00  0.00    +0.000 A 
ATOM     13  C   UNL     1      26.703  16.499  38.405  0.00  0.00    +0.000 A 
ATOM     14  C   UNL     1      26.978  15.834  39.596  0.00  0.00    +0.000 A 
ATOM     15  C   UNL     1      26.029  15.040  40.198  0.00  0.00    +0.000 A 
ATOM     16  C   UNL     1      24.813  14.935  39.577  0.00  0.00    +0.000 A 
ATOM     17  C   UNL     1      24.539  15.595  38.394  0.00  0.00    +0.000 A 
ENDBRANCH   2  12
BRANCH   3  18
ATOM     18  C   UNL     1      24.706  19.394  37.361  0.00  0.00    +0.000 A 
ATOM     19  C   UNL     1      23.500  19.582  37.973  0.00  0.00    +0.000 A 
ATOM     20  C   UNL     1      23.314  20.487  38.953  0.00  0.00    +0.000 A 
ATOM     21  C   UNL     1      24.388  21.257  39.356  0.00  0.00    +0.000 A 
ATOM     22  C   UNL     1      25.616  21.090  38.757  0.00  0.00    +0.000 A 
ATOM     23  C   UNL     1      25.760  20.157  37.763  0.00  0.00    +0.000 A 
ENDBRANCH   3  18
BRANCH   1  24
ATOM     24  C   UNL     1      25.458  15.129  35.066  0.00  0.00    +0.000 C 
BRANCH  24  25
ATOM     25  C   UNL     1      26.848  15.074  34.163  0.00  0.00    +0.000 C 
ATOM     26  O   UNL     1      26.750  13.609  33.814  0.00  0.00    +0.000 OA
BRANCH  25  27
ATOM     27  C   UNL     1      27.781  14.754  35.534  0.00  0.00    +0.000 C 
BRANCH  27  28
ATOM     28  N   UNL     1      28.988  15.445  35.296  0.00  0.00    +0.000 NA
BRANCH  28  29
ATOM     29  C   UNL     1      28.897  16.667  34.591  0.00  0.00    +0.000 C 
BRANCH  29  31
ATOM     30  C   UNL     1      28.290  18.981  35.215  0.00  0.00    +0.000 C 
ATOM     31  C   UNL     1      28.773  17.787  35.549  0.00  0.00    +0.000 C 
ENDBRANCH  29  31
ENDBRANCH  28  29
BRANCH  28  32
ATOM     32  C   UNL     1      29.851  15.390  36.421  0.00  0.00    +0.000 C 
BRANCH  32  33
ATOM     33  C   UNL     1      31.134  14.759  35.950  0.00  0.00    +0.000 C 
ATOM     34  C   UNL     1      31.256  13.494  35.641  0.00  0.00    +0.000 C 
ENDBRANCH  32  33
ENDBRANCH  28  32
ENDBRANCH  27  28
ENDBRANCH  25  27
ENDBRANCH  24  25
ENDBRANCH   1  24
TORSDOF 10
ENDMDL
