MODEL 1
REMARK VINA RESULT:      -6.5      0.000      0.000
REMARK  Name = 
REMARK  5 active torsions:
REMARK  status: ('A' for Active; 'I' for Inactive)
REMARK    1  A    between atoms: C_2  and  C_3
REMARK    2  A    between atoms: C_3  and  N_4
REMARK    3  A    between atoms: C_10  and  C_11
REMARK    4  A    between atoms: C_11  and  N_13
REMARK    5  A    between atoms: N_13  and  C_14
REMARK                            x       y       z     vdW  Elec       q    Type
REMARK                         _______ _______ _______ _____ _____    ______ ____
ROOT
ATOM      1  N   UNL     1      26.551  24.433  23.634  0.00  0.00    +0.000 N 
ATOM      2  C   UNL     1      26.439  23.558  22.531  0.00  0.00    +0.000 C 
ATOM      3  O   UNL     1      25.484  22.761  22.350  0.00  0.00    +0.000 OA
ATOM      4  N   UNL     1      27.474  23.585  21.572  0.00  0.00    +0.000 NA
ATOM      5  C   UNL     1      28.536  24.453  21.742  0.00  0.00    +0.000 C 
ATOM      6  O   UNL     1      29.642  24.277  21.158  0.00  0.00    +0.000 OA
ATOM      7  C   UNL     1      28.505  25.710  22.634  0.00  0.00    +0.000 C 
ATOM      8  C   UNL     1      27.611  25.294  23.809  0.00  0.00    +0.000 C 
ATOM      9  O   UNL     1      27.864  25.758  24.940  0.00  0.00    +0.000 OA
ENDROOT
BRANCH   7  10
ATOM     10  C   UNL     1      29.877  25.506  23.364  0.00  0.00    +0.000 C 
ATOM     11  C   UNL     1      30.584  26.485  23.828  0.00  0.00    +0.000 C 
BRANCH  10  12
ATOM     12  N   UNL     1      30.330  24.170  23.502  0.00  0.00    +0.000 NA
BRANCH  12  13
ATOM     13  C   UNL     1      30.589  23.602  24.774  0.00  0.00    +0.000 A 
ATOM     14  C   UNL     1      31.693  23.903  25.531  0.00  0.00    +0.000 A 
ATOM     15  C   UNL     1      31.912  23.328  26.765  0.00  0.00    +0.000 A 
ATOM     16  C   UNL     1      30.977  22.421  27.242  0.00  0.00    +0.000 A 
ATOM     17  F   UNL     1      31.188  21.853  28.456  0.00  0.00    +0.000 F 
ATOM     18  C   UNL     1      29.857  22.095  26.512  0.00  0.00    +0.000 A 
ATOM     19  C   UNL     1      29.688  22.700  25.282  0.00  0.00    +0.000 A 
ENDBRANCH  12  13
ENDBRANCH  10  12
ENDBRANCH   7  10
BRANCH   1  20
ATOM     20  C   UNL     1      25.416  24.329  24.581  0.00  0.00    +0.000 C 
BRANCH  20  22
ATOM     21  C   UNL     1      25.863  23.822  26.898  0.00  0.00    +0.000 C 
ATOM     22  C   UNL     1      25.702  23.405  25.677  0.00  0.00    +0.000 C 
ENDBRANCH  20  22
ENDBRANCH   1  20
TORSDOF 5
ENDMDL
MODEL 2
REMARK VINA RESULT:      -6.4      2.319      4.921
REMARK  Name = 
REMARK  5 active torsions:
REMARK  status: ('A' for Active; 'I' for Inactive)
REMARK    1  A    between atoms: C_2  and  C_3
REMARK    2  A    between atoms: C_3  and  N_4
REMARK    3  A    between atoms: C_10  and  C_11
REMARK    4  A    between atoms: C_11  and  N_13
REMARK    5  A    between atoms: N_13  and  C_14
REMARK                            x       y       z     vdW  Elec       q    Type
REMARK                         _______ _______ _______ _____ _____    ______ ____
ROOT
ATOM      1  N   UNL     1      29.121  24.237  23.800  0.00  0.00    +0.000 N 
ATOM      2  C   UNL     1      28.694  23.872  22.504  0.00  0.00    +0.000 C 
ATOM      3  O   UNL     1      29.415  23.929  21.476  0.00  0.00    +0.000 OA
ATOM      4  N   UNL     1      27.367  23.414  22.361  0.00  0.00    +0.000 NA
ATOM      5  C   UNL     1      26.551  23.338  23.475  0.00  0.00    +0.000 C 
ATOM      6  O   UNL     1      25.291  23.305  23.377  0.00  0.00    +0.000 OA
ATOM      7  C   UNL     1      27.058  23.280  24.929  0.00  0.00    +0.000 C 
ATOM      8  C   UNL     1      28.308  24.168  24.908  0.00  0.00    +0.000 C 
ATOM      9  O   UNL     1      28.579  24.833  25.929  0.00  0.00    +0.000 OA
ENDROOT
BRANCH   7  10
ATOM     10  C   UNL     1      26.087  24.341  25.551  0.00  0.00    +0.000 C 
ATOM     11  C   UNL     1      25.994  25.557  25.117  0.00  0.00    +0.000 C 
BRANCH  10  12
ATOM     12  N   UNL     1      25.288  23.910  26.639  0.00  0.00    +0.000 NA
BRANCH  12  13
ATOM     13  C   UNL     1      25.708  24.076  27.982  0.00  0.00    +0.000 A 
ATOM     14  C   UNL     1      26.601  23.244  28.609  0.00  0.00    +0.000 A 
ATOM     15  C   UNL     1      26.987  23.439  29.918  0.00  0.00    +0.000 A 
ATOM     16  C   UNL     1      26.447  24.514  30.609  0.00  0.00    +0.000 A 
ATOM     17  F   UNL     1      26.823  24.710  31.897  0.00  0.00    +0.000 F 
ATOM     18  C   UNL     1      25.549  25.371  30.014  0.00  0.00    +0.000 A 
ATOM     19  C   UNL     1      25.198  25.129  28.701  0.00  0.00    +0.000 A 
ENDBRANCH  12  13
ENDBRANCH  10  12
ENDBRANCH   7  10
BRANCH   1  20
ATOM     20  C   UNL     1      30.527  24.701  23.843  0.00  0.00    +0.000 C 
BRANCH  20  22
ATOM     21  C   UNL     1      32.670  23.933  24.646  0.00  0.00    +0.000 C 
ATOM     22  C   UNL     1      31.425  23.676  24.374  0.00  0.00    +0.000 C 
ENDBRANCH  20  22
ENDBRANCH   1  20
TORSDOF 5
ENDMDL
MODEL 3
REMARK VINA RESULT:      -6.1     21.425     22.875
REMARK  Name = 
REMARK  5 active torsions:
REMARK  status: ('A' for Active; 'I' for Inactive)
REMARK    1  A    between atoms: C_2  and  C_3
REMARK    2  A    between atoms: C_3  and  N_4
REMARK    3  A    between atoms: C_10  and  C_11
REMARK    4  A    between atoms: C_11  and  N_13
REMARK    5  A    between atoms: N_13  and  C_14
REMARK                            x       y       z     vdW  Elec       q    Type
REMARK                         _______ _______ _______ _____ _____    ______ ____
ROOT
ATOM      1  N   UNL     1      25.042   0.382  17.088  0.00  0.00    +0.000 N 
ATOM      2  C   UNL     1      23.764  -0.204  17.221  0.00  0.00    +0.000 C 
ATOM      3  O   UNL     1      23.511  -1.414  16.993  0.00  0.00    +0.000 OA
ATOM      4  N   UNL     1      22.705   0.631  17.637  0.00  0.00    +0.000 NA
ATOM      5  C   UNL     1      22.955   1.966  17.899  0.00  0.00    +0.000 C 
ATOM      6  O   UNL     1      22.032   2.828  17.905  0.00  0.00    +0.000 OA
ATOM      7  C   UNL     1      24.346   2.551  18.210  0.00  0.00    +0.000 C 
ATOM      8  C   UNL     1      25.292   1.712  17.341  0.00  0.00    +0.000 C 
ATOM      9  O   UNL     1      26.304   2.264  16.864  0.00  0.00    +0.000 OA
ENDROOT
BRANCH   7  10
ATOM     10  C   UNL     1      24.285   3.800  17.266  0.00  0.00    +0.000 C 
ATOM     11  C   UNL     1      23.981   3.724  16.010  0.00  0.00    +0.000 C 
BRANCH  10  12
ATOM     12  N   UNL     1      24.583   5.055  17.852  0.00  0.00    +0.000 NA
BRANCH  12  13
ATOM     13  C   UNL     1      25.828   5.698  17.641  0.00  0.00    +0.000 A 
ATOM     14  C   UNL     1      26.066   6.577  16.615  0.00  0.00    +0.000 A 
ATOM     15  C   UNL     1      27.292   7.183  16.441  0.00  0.00    +0.000 A 
ATOM     16  C   UNL     1      28.305   6.884  17.341  0.00  0.00    +0.000 A 
ATOM     17  F   UNL     1      29.514   7.478  17.174  0.00  0.00    +0.000 F 
ATOM     18  C   UNL     1      28.104   6.008  18.383  0.00  0.00    +0.000 A 
ATOM     19  C   UNL     1      26.857   5.430  18.509  0.00  0.00    +0.000 A 
ENDBRANCH  12  13
ENDBRANCH  10  12
ENDBRANCH   7  10
BRANCH   1  20
ATOM     20  C   UNL     1      26.083  -0.576  16.648  0.00  0.00    +0.000 C 
BRANCH  20  22
ATOM     21  C   UNL     1      27.496  -1.956  18.036  0.00  0.00    +0.000 C 
ATOM     22  C   UNL     1      27.114  -0.769  17.667  0.00  0.00    +0.000 C 
ENDBRANCH  20  22
ENDBRANCH   1  20
TORSDOF 5
ENDMDL
MODEL 4
REMARK VINA RESULT:      -6.1      4.341      6.476
REMARK  Name = 
REMARK  5 active torsions:
REMARK  status: ('A' for Active; 'I' for Inactive)
REMARK    1  A    between atoms: C_2  and  C_3
REMARK    2  A    between atoms: C_3  and  N_4
REMARK    3  A    between atoms: C_10  and  C_11
REMARK    4  A    between atoms: C_11  and  N_13
REMARK    5  A    between atoms: N_13  and  C_14
REMARK                            x       y       z     vdW  Elec       q    Type
REMARK                         _______ _______ _______ _____ _____    ______ ____
ROOT
ATOM      1  N   UNL     1      25.272  25.694  29.522  0.00  0.00    +0.000 N 
ATOM      2  C   UNL     1      25.443  25.282  30.862  0.00  0.00    +0.000 C 
ATOM      3  O   UNL     1      25.036  25.928  31.861  0.00  0.00    +0.000 OA
ATOM      4  N   UNL     1      26.117  24.063  31.088  0.00  0.00    +0.000 NA
ATOM      5  C   UNL     1      26.572  23.329  30.008  0.00  0.00    +0.000 C 
ATOM      6  O   UNL     1      27.480  22.458  30.129  0.00  0.00    +0.000 OA
ATOM      7  C   UNL     1      26.044  23.471  28.567  0.00  0.00    +0.000 C 
ATOM      8  C   UNL     1      25.730  24.968  28.446  0.00  0.00    +0.000 C 
ATOM      9  O   UNL     1      25.899  25.521  27.340  0.00  0.00    +0.000 OA
ENDROOT
BRANCH   7  10
ATOM     10  C   UNL     1      27.422  23.509  27.821  0.00  0.00    +0.000 C 
ATOM     11  C   UNL     1      28.364  24.345  28.118  0.00  0.00    +0.000 C 
BRANCH  10  12
ATOM     12  N   UNL     1      27.606  22.567  26.779  0.00  0.00    +0.000 NA
BRANCH  12  13
ATOM     13  C   UNL     1      27.352  22.898  25.425  0.00  0.00    +0.000 A 
ATOM     14  C   UNL     1      28.337  23.175  24.512  0.00  0.00    +0.000 A 
ATOM     15  C   UNL     1      28.051  23.494  23.201  0.00  0.00    +0.000 A 
ATOM     16  C   UNL     1      26.720  23.529  22.810  0.00  0.00    +0.000 A 
ATOM     17  F   UNL     1      26.433  23.842  21.521  0.00  0.00    +0.000 F 
ATOM     18  C   UNL     1      25.704  23.256  23.697  0.00  0.00    +0.000 A 
ATOM     19  C   UNL     1      26.048  22.944  24.997  0.00  0.00    +0.000 A 
ENDBRANCH  12  13
ENDBRANCH  10  12
ENDBRANCH   7  10
BRANCH   1  20
ATOM     20  C   UNL     1      24.553  26.983  29.393  0.00  0.00    +0.000 C 
BRANCH  20  22
ATOM     21  C   UNL     1      22.183  26.860  29.837  0.00  0.00    +0.000 C 
ATOM     22  C   UNL     1      23.162  26.794  28.984  0.00  0.00    +0.000 C 
ENDBRANCH  20  22
ENDBRANCH   1  20
TORSDOF 5
ENDMDL
MODEL 5
REMARK VINA RESULT:      -6.0      2.236      4.167
REMARK  Name = 
REMARK  5 active torsions:
REMARK  status: ('A' for Active; 'I' for Inactive)
REMARK    1  A    between atoms: C_2  and  C_3
REMARK    2  A    between atoms: C_3  and  N_4
REMARK    3  A    between atoms: C_10  and  C_11
REMARK    4  A    between atoms: C_11  and  N_13
REMARK    5  A    between atoms: N_13  and  C_14
REMARK                            x       y       z     vdW  Elec       q    Type
REMARK                         _______ _______ _______ _____ _____    ______ ____
ROOT
ATOM      1  N   UNL     1      28.404  26.302  21.471  0.00  0.00    +0.000 N 
ATOM      2  C   UNL     1      29.273  25.392  20.829  0.00  0.00    +0.000 C 
ATOM      3  O   UNL     1      29.849  25.612  19.733  0.00  0.00    +0.000 OA
ATOM      4  N   UNL     1      29.505  24.155  21.466  0.00  0.00    +0.000 NA
ATOM      5  C   UNL     1      28.888  23.886  22.674  0.00  0.00    +0.000 C 
ATOM      6  O   UNL     1      28.746  22.706  23.103  0.00  0.00    +0.000 OA
ATOM      7  C   UNL     1      28.318  24.959  23.624  0.00  0.00    +0.000 C 
ATOM      8  C   UNL     1      27.784  26.035  22.670  0.00  0.00    +0.000 C 
ATOM      9  O   UNL     1      26.765  26.672  23.007  0.00  0.00    +0.000 OA
ENDROOT
BRANCH   7  10
ATOM     10  C   UNL     1      26.939  24.281  23.931  0.00  0.00    +0.000 C 
ATOM     11  C   UNL     1      26.215  23.707  23.025  0.00  0.00    +0.000 C 
BRANCH  10  12
ATOM     12  N   UNL     1      26.499  24.320  25.277  0.00  0.00    +0.000 NA
BRANCH  12  13
ATOM     13  C   UNL     1      27.334  23.906  26.344  0.00  0.00    +0.000 A 
ATOM     14  C   UNL     1      27.815  24.755  27.308  0.00  0.00    +0.000 A 
ATOM     15  C   UNL     1      28.627  24.316  28.332  0.00  0.00    +0.000 A 
ATOM     16  C   UNL     1      28.957  22.969  28.375  0.00  0.00    +0.000 A 
ATOM     17  F   UNL     1      29.755  22.531  29.382  0.00  0.00    +0.000 F 
ATOM     18  C   UNL     1      28.493  22.085  27.428  0.00  0.00    +0.000 A 
ATOM     19  C   UNL     1      27.684  22.581  26.424  0.00  0.00    +0.000 A 
ENDBRANCH  12  13
ENDBRANCH  10  12
ENDBRANCH   7  10
BRANCH   1  20
ATOM     20  C   UNL     1      28.228  27.569  20.723  0.00  0.00    +0.000 C 
BRANCH  20  22
ATOM     21  C   UNL     1      29.835  29.339  20.387  0.00  0.00    +0.000 C 
ATOM     22  C   UNL     1      29.128  28.617  21.204  0.00  0.00    +0.000 C 
ENDBRANCH  20  22
ENDBRANCH   1  20
TORSDOF 5
ENDMDL
MODEL 6
REMARK VINA RESULT:      -5.9      2.467      3.414
REMARK  Name = 
REMARK  5 active torsions:
REMARK  status: ('A' for Active; 'I' for Inactive)
REMARK    1  A    between atoms: C_2  and  C_3
REMARK    2  A    between atoms: C_3  and  N_4
REMARK    3  A    between atoms: C_10  and  C_11
REMARK    4  A    between atoms: C_11  and  N_13
REMARK    5  A    between atoms: N_13  and  C_14
REMARK                            x       y       z     vdW  Elec       q    Type
REMARK                         _______ _______ _______ _____ _____    ______ ____
ROOT
ATOM      1  N   UNL     1      27.668  23.402  24.441  0.00  0.00    +0.000 N 
ATOM      2  C   UNL     1      28.196  23.422  23.131  0.00  0.00    +0.000 C 
ATOM      3  O   UNL     1      27.509  23.297  22.086  0.00  0.00    +0.000 OA
ATOM      4  N   UNL     1      29.591  23.592  22.995  0.00  0.00    +0.000 NA
ATOM      5  C   UNL     1      30.372  23.736  24.127  0.00  0.00    +0.000 C 
ATOM      6  O   UNL     1      31.617  23.518  24.110  0.00  0.00    +0.000 OA
ATOM      7  C   UNL     1      29.841  24.169  25.507  0.00  0.00    +0.000 C 
ATOM      8  C   UNL     1      28.445  23.538  25.569  0.00  0.00    +0.000 C 
ATOM      9  O   UNL     1      28.020  23.147  26.676  0.00  0.00    +0.000 OA
ENDROOT
BRANCH   7  10
ATOM     10  C   UNL     1      30.571  23.092  26.381  0.00  0.00    +0.000 C 
ATOM     11  C   UNL     1      30.479  21.821  26.159  0.00  0.00    +0.000 C 
BRANCH  10  12
ATOM     12  N   UNL     1      31.360  23.574  27.455  0.00  0.00    +0.000 NA
BRANCH  12  13
ATOM     13  C   UNL     1      31.402  22.906  28.703  0.00  0.00    +0.000 A 
ATOM     14  C   UNL     1      32.435  22.093  29.097  0.00  0.00    +0.000 A 
ATOM     15  C   UNL     1      32.441  21.459  30.321  0.00  0.00    +0.000 A 
ATOM     16  C   UNL     1      31.362  21.660  31.170  0.00  0.00    +0.000 A 
ATOM     17  F   UNL     1      31.363  21.039  32.376  0.00  0.00    +0.000 F 
ATOM     18  C   UNL     1      30.308  22.468  30.811  0.00  0.00    +0.000 A 
ATOM     19  C   UNL     1      30.354  23.078  29.573  0.00  0.00    +0.000 A 
ENDBRANCH  12  13
ENDBRANCH  10  12
ENDBRANCH   7  10
BRANCH   1  20
ATOM     20  C   UNL     1      26.199  23.220  24.476  0.00  0.00    +0.000 C 
BRANCH  20  22
ATOM     21  C   UNL     1      25.212  25.081  25.657  0.00  0.00    +0.000 C 
ATOM     22  C   UNL     1      25.490  24.498  24.528  0.00  0.00    +0.000 C 
ENDBRANCH  20  22
ENDBRANCH   1  20
TORSDOF 5
ENDMDL
MODEL 7
REMARK VINA RESULT:      -5.9      2.460      4.176
REMARK  Name = 
REMARK  5 active torsions:
REMARK  status: ('A' for Active; 'I' for Inactive)
REMARK    1  A    between atoms: C_2  and  C_3
REMARK    2  A    between atoms: C_3  and  N_4
REMARK    3  A    between atoms: C_10  and  C_11
REMARK    4  A    between atoms: C_11  and  N_13
REMARK    5  A    between atoms: N_13  and  C_14
REMARK                            x       y       z     vdW  Elec       q    Type
REMARK                         _______ _______ _______ _____ _____    ______ ____
ROOT
ATOM      1  N   UNL     1      28.094  25.042  22.618  0.00  0.00    +0.000 N 
ATOM      2  C   UNL     1      29.204  24.245  22.262  0.00  0.00    +0.000 C 
ATOM      3  O   UNL     1      29.684  24.172  21.103  0.00  0.00    +0.000 OA
ATOM      4  N   UNL     1      29.808  23.479  23.282  0.00  0.00    +0.000 NA
ATOM      5  C   UNL     1      29.303  23.541  24.568  0.00  0.00    +0.000 C 
ATOM      6  O   UNL     1      29.535  22.636  25.419  0.00  0.00    +0.000 OA
ATOM      7  C   UNL     1      28.427  24.687  25.110  0.00  0.00    +0.000 C 
ATOM      8  C   UNL     1      27.586  25.100  23.896  0.00  0.00    +0.000 C 
ATOM      9  O   UNL     1      26.419  25.497  24.092  0.00  0.00    +0.000 OA
ENDROOT
BRANCH   7  10
ATOM     10  C   UNL     1      27.326  23.820  25.812  0.00  0.00    +0.000 C 
ATOM     11  C   UNL     1      26.766  22.797  25.250  0.00  0.00    +0.000 C 
BRANCH  10  12
ATOM     12  N   UNL     1      26.955  24.205  27.124  0.00  0.00    +0.000 NA
BRANCH  12  13
ATOM     13  C   UNL     1      27.567  23.634  28.268  0.00  0.00    +0.000 A 
ATOM     14  C   UNL     1      28.866  23.876  28.636  0.00  0.00    +0.000 A 
ATOM     15  C   UNL     1      29.427  23.301  29.757  0.00  0.00    +0.000 A 
ATOM     16  C   UNL     1      28.640  22.455  30.525  0.00  0.00    +0.000 A 
ATOM     17  F   UNL     1      29.188  21.887  31.629  0.00  0.00    +0.000 F 
ATOM     18  C   UNL     1      27.333  22.189  30.188  0.00  0.00    +0.000 A 
ATOM     19  C   UNL     1      26.822  22.792  29.055  0.00  0.00    +0.000 A 
ENDBRANCH  12  13
ENDBRANCH  10  12
ENDBRANCH   7  10
BRANCH   1  20
ATOM     20  C   UNL     1      27.534  25.807  21.480  0.00  0.00    +0.000 C 
BRANCH  20  22
ATOM     21  C   UNL     1      27.106  28.177  21.319  0.00  0.00    +0.000 C 
ATOM     22  C   UNL     1      27.953  27.208  21.502  0.00  0.00    +0.000 C 
ENDBRANCH  20  22
ENDBRANCH   1  20
TORSDOF 5
ENDMDL
MODEL 8
REMARK VINA RESULT:      -5.9      2.414      3.550
REMARK  Name = 
REMARK  5 active torsions:
REMARK  status: ('A' for Active; 'I' for Inactive)
REMARK    1  A    between atoms: C_2  and  C_3
REMARK    2  A    between atoms: C_3  and  N_4
REMARK    3  A    between atoms: C_10  and  C_11
REMARK    4  A    between atoms: C_11  and  N_13
REMARK    5  A    between atoms: N_13  and  C_14
REMARK                            x       y       z     vdW  Elec       q    Type
REMARK                         _______ _______ _______ _____ _____    ______ ____
ROOT
ATOM      1  N   UNL     1      27.985  27.574  22.599  0.00  0.00    +0.000 N 
ATOM      2  C   UNL     1      28.613  27.916  21.381  0.00  0.00    +0.000 C 
ATOM      3  O   UNL     1      28.573  29.058  20.858  0.00  0.00    +0.000 OA
ATOM      4  N   UNL     1      29.330  26.901  20.712  0.00  0.00    +0.000 NA
ATOM      5  C   UNL     1      29.393  25.635  21.266  0.00  0.00    +0.000 C 
ATOM      6  O   UNL     1      29.679  24.618  20.573  0.00  0.00    +0.000 OA
ATOM      7  C   UNL     1      29.137  25.316  22.752  0.00  0.00    +0.000 C 
ATOM      8  C   UNL     1      28.041  26.313  23.149  0.00  0.00    +0.000 C 
ATOM      9  O   UNL     1      27.192  25.956  23.992  0.00  0.00    +0.000 OA
ENDROOT
BRANCH   7  10
ATOM     10  C   UNL     1      28.199  24.076  22.560  0.00  0.00    +0.000 C 
ATOM     11  C   UNL     1      27.085  24.125  21.904  0.00  0.00    +0.000 C 
BRANCH  10  12
ATOM     12  N   UNL     1      28.627  22.859  23.148  0.00  0.00    +0.000 NA
BRANCH  12  13
ATOM     13  C   UNL     1      28.894  22.758  24.535  0.00  0.00    +0.000 A 
ATOM     14  C   UNL     1      27.929  22.861  25.506  0.00  0.00    +0.000 A 
ATOM     15  C   UNL     1      28.228  22.757  26.847  0.00  0.00    +0.000 A 
ATOM     16  C   UNL     1      29.550  22.541  27.211  0.00  0.00    +0.000 A 
ATOM     17  F   UNL     1      29.848  22.437  28.530  0.00  0.00    +0.000 F 
ATOM     18  C   UNL     1      30.544  22.431  26.267  0.00  0.00    +0.000 A 
ATOM     19  C   UNL     1      30.189  22.543  24.938  0.00  0.00    +0.000 A 
ENDBRANCH  12  13
ENDBRANCH  10  12
ENDBRANCH   7  10
BRANCH   1  20
ATOM     20  C   UNL     1      27.260  28.706  23.222  0.00  0.00    +0.000 C 
BRANCH  20  22
ATOM     21  C   UNL     1      24.890  28.705  23.680  0.00  0.00    +0.000 C 
ATOM     22  C   UNL     1      25.857  28.749  22.812  0.00  0.00    +0.000 C 
ENDBRANCH  20  22
ENDBRANCH   1  20
TORSDOF 5
ENDMDL
MODEL 9
REMARK VINA RESULT:      -5.8      3.076      4.903
REMARK  Name = 
REMARK  5 active torsions:
REMARK  status: ('A' for Active; 'I' for Inactive)
REMARK    1  A    between atoms: C_2  and  C_3
REMARK    2  A    between atoms: C_3  and  N_4
REMARK    3  A    between atoms: C_10  and  C_11
REMARK    4  A    between atoms: C_11  and  N_13
REMARK    5  A    between atoms: N_13  and  C_14
REMARK                            x       y       z     vdW  Elec       q    Type
REMARK                         _______ _______ _______ _____ _____    ______ ____
ROOT
ATOM      1  N   UNL     1      26.824  23.269  28.718  0.00  0.00    +0.000 N 
ATOM      2  C   UNL     1      25.905  24.285  29.062  0.00  0.00    +0.000 C 
ATOM      3  O   UNL     1      25.368  24.404  30.192  0.00  0.00    +0.000 OA
ATOM      4  N   UNL     1      25.572  25.226  28.064  0.00  0.00    +0.000 NA
ATOM      5  C   UNL     1      26.150  25.122  26.812  0.00  0.00    +0.000 C 
ATOM      6  O   UNL     1      25.639  25.669  25.794  0.00  0.00    +0.000 OA
ATOM      7  C   UNL     1      27.452  24.355  26.510  0.00  0.00    +0.000 C 
ATOM      8  C   UNL     1      27.396  23.160  27.470  0.00  0.00    +0.000 C 
ATOM      9  O   UNL     1      27.886  22.075  27.096  0.00  0.00    +0.000 OA
ENDROOT
BRANCH   7  10
ATOM     10  C   UNL     1      26.973  23.587  25.230  0.00  0.00    +0.000 C 
ATOM     11  C   UNL     1      25.847  22.954  25.165  0.00  0.00    +0.000 C 
BRANCH  10  12
ATOM     12  N   UNL     1      27.843  23.612  24.112  0.00  0.00    +0.000 NA
BRANCH  12  13
ATOM     13  C   UNL     1      29.246  23.742  24.264  0.00  0.00    +0.000 A 
ATOM     14  C   UNL     1      30.092  22.679  24.453  0.00  0.00    +0.000 A 
ATOM     15  C   UNL     1      31.453  22.845  24.598  0.00  0.00    +0.000 A 
ATOM     16  C   UNL     1      31.966  24.133  24.548  0.00  0.00    +0.000 A 
ATOM     17  F   UNL     1      33.305  24.301  24.689  0.00  0.00    +0.000 F 
ATOM     18  C   UNL     1      31.150  25.224  24.359  0.00  0.00    +0.000 A 
ATOM     19  C   UNL     1      29.794  25.000  24.221  0.00  0.00    +0.000 A 
ENDBRANCH  12  13
ENDBRANCH  10  12
ENDBRANCH   7  10
BRANCH   1  20
ATOM     20  C   UNL     1      27.108  22.335  29.832  0.00  0.00    +0.000 C 
BRANCH  20  22
ATOM     21  C   UNL     1      28.761  23.660  30.991  0.00  0.00    +0.000 C 
ATOM     22  C   UNL     1      28.440  22.548  30.398  0.00  0.00    +0.000 C 
ENDBRANCH  20  22
ENDBRANCH   1  20
TORSDOF 5
ENDMDL
MODEL 10
REMARK VINA RESULT:      -5.8     28.179     30.140
REMARK  Name = 
REMARK  5 active torsions:
REMARK  status: ('A' for Active; 'I' for Inactive)
REMARK    1  A    between atoms: C_2  and  C_3
REMARK    2  A    between atoms: C_3  and  N_4
REMARK    3  A    between atoms: C_10  and  C_11
REMARK    4  A    between atoms: C_11  and  N_13
REMARK    5  A    between atoms: N_13  and  C_14
REMARK                            x       y       z     vdW  Elec       q    Type
REMARK                         _______ _______ _______ _____ _____    ______ ____
ROOT
ATOM      1  N   UNL     1      32.112  -5.888  31.310  0.00  0.00    +0.000 N 
ATOM      2  C   UNL     1      30.838  -6.410  31.625  0.00  0.00    +0.000 C 
ATOM      3  O   UNL     1      29.953  -6.686  30.777  0.00  0.00    +0.000 OA
ATOM      4  N   UNL     1      30.546  -6.634  32.988  0.00  0.00    +0.000 NA
ATOM      5  C   UNL     1      31.502  -6.344  33.944  0.00  0.00    +0.000 C 
ATOM      6  O   UNL     1      31.198  -6.162  35.157  0.00  0.00    +0.000 OA
ATOM      7  C   UNL     1      33.012  -6.214  33.661  0.00  0.00    +0.000 C 
ATOM      8  C   UNL     1      33.062  -5.592  32.260  0.00  0.00    +0.000 C 
ATOM      9  O   UNL     1      33.994  -4.805  31.994  0.00  0.00    +0.000 OA
ENDROOT
BRANCH   7  10
ATOM     10  C   UNL     1      33.280  -4.892  34.461  0.00  0.00    +0.000 C 
ATOM     11  C   UNL     1      34.260  -4.757  35.296  0.00  0.00    +0.000 C 
BRANCH  10  12
ATOM     12  N   UNL     1      32.387  -3.818  34.229  0.00  0.00    +0.000 NA
BRANCH  12  13
ATOM     13  C   UNL     1      32.786  -2.469  34.399  0.00  0.00    +0.000 A 
ATOM     14  C   UNL     1      33.626  -1.810  33.538  0.00  0.00    +0.000 A 
ATOM     15  C   UNL     1      33.994  -0.496  33.737  0.00  0.00    +0.000 A 
ATOM     16  C   UNL     1      33.488   0.166  34.847  0.00  0.00    +0.000 A 
ATOM     17  F   UNL     1      33.846   1.459  35.047  0.00  0.00    +0.000 F 
ATOM     18  C   UNL     1      32.642  -0.461  35.733  0.00  0.00    +0.000 A 
ATOM     19  C   UNL     1      32.308  -1.778  35.485  0.00  0.00    +0.000 A 
ENDBRANCH  12  13
ENDBRANCH  10  12
ENDBRANCH   7  10
BRANCH   1  20
ATOM     20  C   UNL     1      32.319  -5.691  29.856  0.00  0.00    +0.000 C 
BRANCH  20  22
ATOM     21  C   UNL     1      34.249  -6.534  28.676  0.00  0.00    +0.000 C 
ATOM     22  C   UNL     1      33.115  -6.767  29.266  0.00  0.00    +0.000 C 
ENDBRANCH  20  22
ENDBRANCH   1  20
TORSDOF 5
ENDMDL
