MODEL 1
REMARK VINA RESULT:      -7.2      0.000      0.000
REMARK  Name = 
REMARK  1 active torsions:
REMARK  status: ('A' for Active; 'I' for Inactive)
REMARK    1  A    between atoms: C_11  and  C_12
REMARK                            x       y       z     vdW  Elec       q    Type
REMARK                         _______ _______ _______ _____ _____    ______ ____
ROOT
ATOM      1  C   UNL     1      29.713   3.755  16.093  0.00  0.00    +0.000 C 
ATOM      2  C   UNL     1      28.480   4.557  16.448  0.00  0.00    +0.000 C 
ATOM      3  C   UNL     1      28.841   5.490  17.589  0.00  0.00    +0.000 C 
ATOM      4  C   UNL     1      27.602   6.208  18.043  0.00  0.00    +0.000 C 
ATOM      5  C   UNL     1      27.946   7.161  19.164  0.00  0.00    +0.000 C 
ATOM      6  C   UNL     1      27.177   7.098  16.878  0.00  0.00    +0.000 C 
ATOM      7  C   UNL     1      26.859   6.227  15.703  0.00  0.00    +0.000 C 
ATOM      8  C   UNL     1      26.448   7.129  14.563  0.00  0.00    +0.000 C 
ATOM      9  C   UNL     1      28.007   5.355  15.264  0.00  0.00    +0.000 C 
ATOM     10  C   UNL     1      25.698   5.306  16.068  0.00  0.00    +0.000 C 
ATOM     11  C   UNL     1      26.136   4.448  17.241  0.00  0.00    +0.000 C 
ATOM     12  C   UNL     1      27.365   3.640  16.855  0.00  0.00    +0.000 C 
ATOM     13  C   UNL     1      26.503   5.252  18.456  0.00  0.00    +0.000 C 
ENDROOT
BRANCH  11  14
ATOM     14  C   UNL     1      25.029   3.467  17.497  0.00  0.00    +0.000 A 
ATOM     15  C   UNL     1      23.753   3.898  17.781  0.00  0.00    +0.000 A 
ATOM     16  C   UNL     1      22.712   2.990  18.012  0.00  0.00    +0.000 A 
ATOM     17  C   UNL     1      22.959   1.650  17.954  0.00  0.00    +0.000 A 
ATOM     18  O   UNL     1      21.946   0.704  18.175  0.00  0.00    +0.000 OA
ATOM     19  C   UNL     1      24.223   1.193  17.673  0.00  0.00    +0.000 A 
ATOM     20  N   UNL     1      24.529  -0.182  17.602  0.00  0.00    +0.000 NA
ATOM     21  C   UNL     1      25.260   2.114  17.443  0.00  0.00    +0.000 A 
ENDBRANCH  11  14
TORSDOF 1
ENDMDL
MODEL 2
REMARK VINA RESULT:      -7.1      0.189      2.454
REMARK  Name = 
REMARK  1 active torsions:
REMARK  status: ('A' for Active; 'I' for Inactive)
REMARK    1  A    between atoms: C_11  and  C_12
REMARK                            x       y       z     vdW  Elec       q    Type
REMARK                         _______ _______ _______ _____ _____    ______ ____
ROOT
ATOM      1  C   UNL     1      26.542   7.041  14.488  0.00  0.00    +0.000 C 
ATOM      2  C   UNL     1      26.926   6.175  15.669  0.00  0.00    +0.000 C 
ATOM      3  C   UNL     1      28.229   5.474  15.330  0.00  0.00    +0.000 C 
ATOM      4  C   UNL     1      28.567   4.513  16.435  0.00  0.00    +0.000 C 
ATOM      5  C   UNL     1      29.874   3.821  16.127  0.00  0.00    +0.000 C 
ATOM      6  C   UNL     1      28.848   5.367  17.668  0.00  0.00    +0.000 C 
ATOM      7  C   UNL     1      27.606   6.127  18.016  0.00  0.00    +0.000 C 
ATOM      8  C   UNL     1      27.910   6.969  19.233  0.00  0.00    +0.000 C 
ATOM      9  C   UNL     1      27.104   7.013  16.906  0.00  0.00    +0.000 C 
ATOM     10  C   UNL     1      26.494   5.134  18.348  0.00  0.00    +0.000 C 
ATOM     11  C   UNL     1      26.249   4.282  17.115  0.00  0.00    +0.000 C 
ATOM     12  C   UNL     1      25.849   5.171  15.949  0.00  0.00    +0.000 C 
ATOM     13  C   UNL     1      27.462   3.509  16.681  0.00  0.00    +0.000 C 
ENDROOT
BRANCH  11  14
ATOM     14  C   UNL     1      25.071   3.405  17.423  0.00  0.00    +0.000 A 
ATOM     15  C   UNL     1      23.863   3.948  17.803  0.00  0.00    +0.000 A 
ATOM     16  C   UNL     1      22.756   3.137  18.083  0.00  0.00    +0.000 A 
ATOM     17  C   UNL     1      22.868   1.783  17.979  0.00  0.00    +0.000 A 
ATOM     18  O   UNL     1      21.784   0.931  18.247  0.00  0.00    +0.000 OA
ATOM     19  C   UNL     1      24.060   1.215  17.603  0.00  0.00    +0.000 A 
ATOM     20  N   UNL     1      24.226  -0.181  17.481  0.00  0.00    +0.000 NA
ATOM     21  C   UNL     1      25.165   2.038  17.324  0.00  0.00    +0.000 A 
ENDBRANCH  11  14
TORSDOF 1
ENDMDL
MODEL 3
REMARK VINA RESULT:      -6.8     18.864     20.041
REMARK  Name = 
REMARK  1 active torsions:
REMARK  status: ('A' for Active; 'I' for Inactive)
REMARK    1  A    between atoms: C_11  and  C_12
REMARK                            x       y       z     vdW  Elec       q    Type
REMARK                         _______ _______ _______ _____ _____    ______ ____
ROOT
ATOM      1  C   UNL     1      35.082  23.971   9.817  0.00  0.00    +0.000 C 
ATOM      2  C   UNL     1      34.355  22.668  10.072  0.00  0.00    +0.000 C 
ATOM      3  C   UNL     1      34.423  21.840   8.802  0.00  0.00    +0.000 C 
ATOM      4  C   UNL     1      33.602  20.594   8.989  0.00  0.00    +0.000 C 
ATOM      5  C   UNL     1      33.675  19.744   7.743  0.00  0.00    +0.000 C 
ATOM      6  C   UNL     1      34.306  19.781  10.071  0.00  0.00    +0.000 C 
ATOM      7  C   UNL     1      34.317  20.578  11.338  0.00  0.00    +0.000 C 
ATOM      8  C   UNL     1      35.024  19.757  12.390  0.00  0.00    +0.000 C 
ATOM      9  C   UNL     1      34.995  21.918  11.207  0.00  0.00    +0.000 C 
ATOM     10  C   UNL     1      32.876  20.835  11.774  0.00  0.00    +0.000 C 
ATOM     11  C   UNL     1      32.191  21.626  10.674  0.00  0.00    +0.000 C 
ATOM     12  C   UNL     1      32.928  22.936  10.448  0.00  0.00    +0.000 C 
ATOM     13  C   UNL     1      32.166  20.903   9.356  0.00  0.00    +0.000 C 
ENDROOT
BRANCH  11  14
ATOM     14  C   UNL     1      30.822  21.974  11.180  0.00  0.00    +0.000 A 
ATOM     15  C   UNL     1      29.692  21.532  10.530  0.00  0.00    +0.000 A 
ATOM     16  C   UNL     1      28.411  21.845  11.000  0.00  0.00    +0.000 A 
ATOM     17  C   UNL     1      28.272  22.601  12.126  0.00  0.00    +0.000 A 
ATOM     18  O   UNL     1      27.007  22.937  12.637  0.00  0.00    +0.000 OA
ATOM     19  C   UNL     1      29.382  23.056  12.794  0.00  0.00    +0.000 A 
ATOM     20  N   UNL     1      29.290  23.841  13.963  0.00  0.00    +0.000 NA
ATOM     21  C   UNL     1      30.663  22.735  12.313  0.00  0.00    +0.000 A 
ENDBRANCH  11  14
TORSDOF 1
ENDMDL
MODEL 4
REMARK VINA RESULT:      -6.7     18.887     19.796
REMARK  Name = 
REMARK  1 active torsions:
REMARK  status: ('A' for Active; 'I' for Inactive)
REMARK    1  A    between atoms: C_11  and  C_12
REMARK                            x       y       z     vdW  Elec       q    Type
REMARK                         _______ _______ _______ _____ _____    ______ ____
ROOT
ATOM      1  C   UNL     1      34.634  19.347   7.930  0.00  0.00    +0.000 C 
ATOM      2  C   UNL     1      34.538  20.200   9.177  0.00  0.00    +0.000 C 
ATOM      3  C   UNL     1      35.258  19.471  10.297  0.00  0.00    +0.000 C 
ATOM      4  C   UNL     1      35.070  20.238  11.576  0.00  0.00    +0.000 C 
ATOM      5  C   UNL     1      35.799  19.540  12.701  0.00  0.00    +0.000 C 
ATOM      6  C   UNL     1      35.801  21.564  11.387  0.00  0.00    +0.000 C 
ATOM      7  C   UNL     1      35.164  22.303  10.252  0.00  0.00    +0.000 C 
ATOM      8  C   UNL     1      35.908  23.607  10.080  0.00  0.00    +0.000 C 
ATOM      9  C   UNL     1      35.174  21.544   8.950  0.00  0.00    +0.000 C 
ATOM     10  C   UNL     1      33.706  22.591  10.604  0.00  0.00    +0.000 C 
ATOM     11  C   UNL     1      33.006  21.260  10.809  0.00  0.00    +0.000 C 
ATOM     12  C   UNL     1      33.101  20.429   9.539  0.00  0.00    +0.000 C 
ATOM     13  C   UNL     1      33.609  20.440  11.915  0.00  0.00    +0.000 C 
ENDROOT
BRANCH  11  14
ATOM     14  C   UNL     1      31.554  21.564  11.026  0.00  0.00    +0.000 A 
ATOM     15  C   UNL     1      30.612  21.243  10.075  0.00  0.00    +0.000 A 
ATOM     16  C   UNL     1      29.252  21.516  10.273  0.00  0.00    +0.000 A 
ATOM     17  C   UNL     1      28.845  22.110  11.431  0.00  0.00    +0.000 A 
ATOM     18  O   UNL     1      27.493  22.399  11.675  0.00  0.00    +0.000 OA
ATOM     19  C   UNL     1      29.763  22.442  12.396  0.00  0.00    +0.000 A 
ATOM     20  N   UNL     1      29.392  23.058  13.610  0.00  0.00    +0.000 NA
ATOM     21  C   UNL     1      31.125  22.163  12.186  0.00  0.00    +0.000 A 
ENDBRANCH  11  14
TORSDOF 1
ENDMDL
MODEL 5
REMARK VINA RESULT:      -6.6     13.278     16.997
REMARK  Name = 
REMARK  1 active torsions:
REMARK  status: ('A' for Active; 'I' for Inactive)
REMARK    1  A    between atoms: C_11  and  C_12
REMARK                            x       y       z     vdW  Elec       q    Type
REMARK                         _______ _______ _______ _____ _____    ______ ____
ROOT
ATOM      1  C   UNL     1      17.674 -10.423  24.153  0.00  0.00    +0.000 C 
ATOM      2  C   UNL     1      18.433  -9.630  25.195  0.00  0.00    +0.000 C 
ATOM      3  C   UNL     1      17.537  -8.500  25.667  0.00  0.00    +0.000 C 
ATOM      4  C   UNL     1      18.313  -7.624  26.611  0.00  0.00    +0.000 C 
ATOM      5  C   UNL     1      17.430  -6.505  27.110  0.00  0.00    +0.000 C 
ATOM      6  C   UNL     1      18.606  -8.481  27.839  0.00  0.00    +0.000 C 
ATOM      7  C   UNL     1      19.446  -9.647  27.419  0.00  0.00    +0.000 C 
ATOM      8  C   UNL     1      19.717 -10.482  28.648  0.00  0.00    +0.000 C 
ATOM      9  C   UNL     1      18.806 -10.506  26.359  0.00  0.00    +0.000 C 
ATOM     10  C   UNL     1      20.766  -9.128  26.853  0.00  0.00    +0.000 C 
ATOM     11  C   UNL     1      20.448  -8.263  25.648  0.00  0.00    +0.000 C 
ATOM     12  C   UNL     1      19.701  -9.084  24.609  0.00  0.00    +0.000 C 
ATOM     13  C   UNL     1      19.579  -7.083  25.982  0.00  0.00    +0.000 C 
ENDROOT
BRANCH  11  14
ATOM     14  C   UNL     1      21.761  -7.872  25.037  0.00  0.00    +0.000 A 
ATOM     15  C   UNL     1      22.018  -6.567  24.682  0.00  0.00    +0.000 A 
ATOM     16  C   UNL     1      23.244  -6.192  24.119  0.00  0.00    +0.000 A 
ATOM     17  C   UNL     1      24.210  -7.133  23.918  0.00  0.00    +0.000 A 
ATOM     18  O   UNL     1      25.456  -6.803  23.361  0.00  0.00    +0.000 OA
ATOM     19  C   UNL     1      23.981  -8.442  24.262  0.00  0.00    +0.000 A 
ATOM     20  N   UNL     1      24.948  -9.452  24.074  0.00  0.00    +0.000 NA
ATOM     21  C   UNL     1      22.746  -8.807  24.826  0.00  0.00    +0.000 A 
ENDBRANCH  11  14
TORSDOF 1
ENDMDL
MODEL 6
REMARK VINA RESULT:      -6.5     20.121     22.075
REMARK  Name = 
REMARK  1 active torsions:
REMARK  status: ('A' for Active; 'I' for Inactive)
REMARK    1  A    between atoms: C_11  and  C_12
REMARK                            x       y       z     vdW  Elec       q    Type
REMARK                         _______ _______ _______ _____ _____    ______ ____
ROOT
ATOM      1  C   UNL     1      29.361  26.634  28.621  0.00  0.00    +0.000 C 
ATOM      2  C   UNL     1      29.059  25.166  28.407  0.00  0.00    +0.000 C 
ATOM      3  C   UNL     1      30.359  24.396  28.554  0.00  0.00    +0.000 C 
ATOM      4  C   UNL     1      30.109  22.951  28.224  0.00  0.00    +0.000 C 
ATOM      5  C   UNL     1      31.387  22.162  28.386  0.00  0.00    +0.000 C 
ATOM      6  C   UNL     1      29.173  22.425  29.308  0.00  0.00    +0.000 C 
ATOM      7  C   UNL     1      27.888  23.191  29.244  0.00  0.00    +0.000 C 
ATOM      8  C   UNL     1      26.983  22.658  30.329  0.00  0.00    +0.000 C 
ATOM      9  C   UNL     1      28.059  24.678  29.419  0.00  0.00    +0.000 C 
ATOM     10  C   UNL     1      27.241  22.961  27.880  0.00  0.00    +0.000 C 
ATOM     11  C   UNL     1      28.199  23.472  26.819  0.00  0.00    +0.000 C 
ATOM     12  C   UNL     1      28.474  24.950  27.044  0.00  0.00    +0.000 C 
ATOM     13  C   UNL     1      29.528  22.771  26.837  0.00  0.00    +0.000 C 
ENDROOT
BRANCH  11  14
ATOM     14  C   UNL     1      27.489  23.353  25.503  0.00  0.00    +0.000 A 
ATOM     15  C   UNL     1      26.126  23.162  25.447  0.00  0.00    +0.000 A 
ATOM     16  C   UNL     1      25.454  23.059  24.223  0.00  0.00    +0.000 A 
ATOM     17  C   UNL     1      26.156  23.150  23.058  0.00  0.00    +0.000 A 
ATOM     18  O   UNL     1      25.524  23.056  21.807  0.00  0.00    +0.000 OA
ATOM     19  C   UNL     1      27.516  23.339  23.084  0.00  0.00    +0.000 A 
ATOM     20  N   UNL     1      28.286  23.440  21.906  0.00  0.00    +0.000 NA
ATOM     21  C   UNL     1      28.180  23.442  24.318  0.00  0.00    +0.000 A 
ENDBRANCH  11  14
TORSDOF 1
ENDMDL
MODEL 7
REMARK VINA RESULT:      -6.5     13.435     17.067
REMARK  Name = 
REMARK  1 active torsions:
REMARK  status: ('A' for Active; 'I' for Inactive)
REMARK    1  A    between atoms: C_11  and  C_12
REMARK                            x       y       z     vdW  Elec       q    Type
REMARK                         _______ _______ _______ _____ _____    ______ ____
ROOT
ATOM      1  C   UNL     1      19.533 -10.356  28.813  0.00  0.00    +0.000 C 
ATOM      2  C   UNL     1      19.272  -9.513  27.583  0.00  0.00    +0.000 C 
ATOM      3  C   UNL     1      18.360 -10.301  26.661  0.00  0.00    +0.000 C 
ATOM      4  C   UNL     1      18.186  -9.538  25.379  0.00  0.00    +0.000 C 
ATOM      5  C   UNL     1      17.261 -10.297  24.455  0.00  0.00    +0.000 C 
ATOM      6  C   UNL     1      17.430  -8.263  25.743  0.00  0.00    +0.000 C 
ATOM      7  C   UNL     1      18.265  -7.469  26.698  0.00  0.00    +0.000 C 
ATOM      8  C   UNL     1      17.495  -6.218  27.049  0.00  0.00    +0.000 C 
ATOM      9  C   UNL     1      18.617  -8.213  27.961  0.00  0.00    +0.000 C 
ATOM     10  C   UNL     1      19.575  -7.087  26.012  0.00  0.00    +0.000 C 
ATOM     11  C   UNL     1      20.297  -8.369  25.640  0.00  0.00    +0.000 C 
ATOM     12  C   UNL     1      20.562  -9.190  26.892  0.00  0.00    +0.000 C 
ATOM     13  C   UNL     1      19.508  -9.241  24.704  0.00  0.00    +0.000 C 
ENDROOT
BRANCH  11  14
ATOM     14  C   UNL     1      21.632  -7.968  25.087  0.00  0.00    +0.000 A 
ATOM     15  C   UNL     1      21.903  -6.656  24.769  0.00  0.00    +0.000 A 
ATOM     16  C   UNL     1      23.150  -6.272  24.260  0.00  0.00    +0.000 A 
ATOM     17  C   UNL     1      24.121  -7.210  24.075  0.00  0.00    +0.000 A 
ATOM     18  O   UNL     1      25.387  -6.870  23.571  0.00  0.00    +0.000 OA
ATOM     19  C   UNL     1      23.878  -8.526  24.382  0.00  0.00    +0.000 A 
ATOM     20  N   UNL     1      24.851  -9.533  24.208  0.00  0.00    +0.000 NA
ATOM     21  C   UNL     1      22.623  -8.900  24.892  0.00  0.00    +0.000 A 
ENDBRANCH  11  14
TORSDOF 1
ENDMDL
MODEL 8
REMARK VINA RESULT:      -6.4     20.891     22.286
REMARK  Name = 
REMARK  1 active torsions:
REMARK  status: ('A' for Active; 'I' for Inactive)
REMARK    1  A    between atoms: C_11  and  C_12
REMARK                            x       y       z     vdW  Elec       q    Type
REMARK                         _______ _______ _______ _____ _____    ______ ____
ROOT
ATOM      1  C   UNL     1      29.473  27.444  24.953  0.00  0.00    +0.000 C 
ATOM      2  C   UNL     1      29.264  25.947  24.877  0.00  0.00    +0.000 C 
ATOM      3  C   UNL     1      28.481  25.648  23.611  0.00  0.00    +0.000 C 
ATOM      4  C   UNL     1      28.153  24.182  23.576  0.00  0.00    +0.000 C 
ATOM      5  C   UNL     1      27.393  23.860  22.310  0.00  0.00    +0.000 C 
ATOM      6  C   UNL     1      29.487  23.453  23.439  0.00  0.00    +0.000 C 
ATOM      7  C   UNL     1      30.324  23.758  24.641  0.00  0.00    +0.000 C 
ATOM      8  C   UNL     1      31.639  23.032  24.479  0.00  0.00    +0.000 C 
ATOM      9  C   UNL     1      30.585  25.228  24.843  0.00  0.00    +0.000 C 
ATOM     10  C   UNL     1      29.608  23.244  25.888  0.00  0.00    +0.000 C 
ATOM     11  C   UNL     1      28.277  23.967  25.990  0.00  0.00    +0.000 C 
ATOM     12  C   UNL     1      28.513  25.466  26.082  0.00  0.00    +0.000 C 
ATOM     13  C   UNL     1      27.387  23.736  24.802  0.00  0.00    +0.000 C 
ENDROOT
BRANCH  11  14
ATOM     14  C   UNL     1      27.653  23.541  27.286  0.00  0.00    +0.000 A 
ATOM     15  C   UNL     1      27.977  22.335  27.866  0.00  0.00    +0.000 A 
ATOM     16  C   UNL     1      27.406  21.933  29.080  0.00  0.00    +0.000 A 
ATOM     17  C   UNL     1      26.511  22.748  29.707  0.00  0.00    +0.000 A 
ATOM     18  O   UNL     1      25.916  22.389  30.927  0.00  0.00    +0.000 OA
ATOM     19  C   UNL     1      26.169  23.956  29.151  0.00  0.00    +0.000 A 
ATOM     20  N   UNL     1      25.248  24.834  29.761  0.00  0.00    +0.000 NA
ATOM     21  C   UNL     1      26.748  24.349  27.932  0.00  0.00    +0.000 A 
ENDBRANCH  11  14
TORSDOF 1
ENDMDL
MODEL 9
REMARK VINA RESULT:      -6.4     18.511     19.924
REMARK  Name = 
REMARK  1 active torsions:
REMARK  status: ('A' for Active; 'I' for Inactive)
REMARK    1  A    between atoms: C_11  and  C_12
REMARK                            x       y       z     vdW  Elec       q    Type
REMARK                         _______ _______ _______ _____ _____    ______ ____
ROOT
ATOM      1  C   UNL     1      34.508  18.721   7.626  0.00  0.00    +0.000 C 
ATOM      2  C   UNL     1      33.293  19.591   7.386  0.00  0.00    +0.000 C 
ATOM      3  C   UNL     1      33.694  20.699   6.430  0.00  0.00    +0.000 C 
ATOM      4  C   UNL     1      32.539  21.649   6.273  0.00  0.00    +0.000 C 
ATOM      5  C   UNL     1      32.910  22.748   5.306  0.00  0.00    +0.000 C 
ATOM      6  C   UNL     1      31.433  20.860   5.578  0.00  0.00    +0.000 C 
ATOM      7  C   UNL     1      31.036  19.716   6.459  0.00  0.00    +0.000 C 
ATOM      8  C   UNL     1      29.947  18.948   5.748  0.00  0.00    +0.000 C 
ATOM      9  C   UNL     1      32.171  18.784   6.793  0.00  0.00    +0.000 C 
ATOM     10  C   UNL     1      30.494  20.269   7.775  0.00  0.00    +0.000 C 
ATOM     11  C   UNL     1      31.604  21.066   8.436  0.00  0.00    +0.000 C 
ATOM     12  C   UNL     1      32.805  20.168   8.681  0.00  0.00    +0.000 C 
ATOM     13  C   UNL     1      32.082  22.219   7.599  0.00  0.00    +0.000 C 
ENDROOT
BRANCH  11  14
ATOM     14  C   UNL     1      31.090  21.489   9.781  0.00  0.00    +0.000 A 
ATOM     15  C   UNL     1      30.435  22.689   9.945  0.00  0.00    +0.000 A 
ATOM     16  C   UNL     1      29.945  23.087  11.194  0.00  0.00    +0.000 A 
ATOM     17  C   UNL     1      30.113  22.274  12.276  0.00  0.00    +0.000 A 
ATOM     18  O   UNL     1      29.635  22.631  13.547  0.00  0.00    +0.000 OA
ATOM     19  C   UNL     1      30.763  21.072  12.141  0.00  0.00    +0.000 A 
ATOM     20  N   UNL     1      30.962  20.197  13.229  0.00  0.00    +0.000 NA
ATOM     21  C   UNL     1      31.251  20.683  10.882  0.00  0.00    +0.000 A 
ENDBRANCH  11  14
TORSDOF 1
ENDMDL
MODEL 10
REMARK VINA RESULT:      -6.3     20.424     22.371
REMARK  Name = 
REMARK  1 active torsions:
REMARK  status: ('A' for Active; 'I' for Inactive)
REMARK    1  A    between atoms: C_11  and  C_12
REMARK                            x       y       z     vdW  Elec       q    Type
REMARK                         _______ _______ _______ _____ _____    ______ ____
ROOT
ATOM      1  C   UNL     1      23.529  13.208  39.252  0.00  0.00    +0.000 C 
ATOM      2  C   UNL     1      23.140  11.837  38.743  0.00  0.00    +0.000 C 
ATOM      3  C   UNL     1      24.036  11.505  37.564  0.00  0.00    +0.000 C 
ATOM      4  C   UNL     1      23.587  10.202  36.963  0.00  0.00    +0.000 C 
ATOM      5  C   UNL     1      24.482   9.842  35.800  0.00  0.00    +0.000 C 
ATOM      6  C   UNL     1      23.853   9.134  38.019  0.00  0.00    +0.000 C 
ATOM      7  C   UNL     1      23.031   9.445  39.231  0.00  0.00    +0.000 C 
ATOM      8  C   UNL     1      23.316   8.380  40.263  0.00  0.00    +0.000 C 
ATOM      9  C   UNL     1      23.310  10.803  39.822  0.00  0.00    +0.000 C 
ATOM     10  C   UNL     1      21.553   9.405  38.852  0.00  0.00    +0.000 C 
ATOM     11  C   UNL     1      21.318  10.460  37.785  0.00  0.00    +0.000 C 
ATOM     12  C   UNL     1      21.700  11.829  38.325  0.00  0.00    +0.000 C 
ATOM     13  C   UNL     1      22.133  10.235  36.543  0.00  0.00    +0.000 C 
ENDROOT
BRANCH  11  14
ATOM     14  C   UNL     1      19.841  10.488  37.523  0.00  0.00    +0.000 A 
ATOM     15  C   UNL     1      19.001  11.272  38.282  0.00  0.00    +0.000 A 
ATOM     16  C   UNL     1      17.623  11.312  38.038  0.00  0.00    +0.000 A 
ATOM     17  C   UNL     1      17.094  10.562  37.030  0.00  0.00    +0.000 A 
ATOM     18  O   UNL     1      15.719  10.572  36.747  0.00  0.00    +0.000 OA
ATOM     19  C   UNL     1      17.908   9.769  36.259  0.00  0.00    +0.000 A 
ATOM     20  N   UNL     1      17.409   8.976  35.205  0.00  0.00    +0.000 NA
ATOM     21  C   UNL     1      19.290   9.738  36.512  0.00  0.00    +0.000 A 
ENDBRANCH  11  14
TORSDOF 1
ENDMDL
