MODEL 1
REMARK VINA RESULT:      -7.8      0.000      0.000
REMARK  Name = 
REMARK  9 active torsions:
REMARK  status: ('A' for Active; 'I' for Inactive)
REMARK    1  A    between atoms: O_2  and  C_3
REMARK    2  A    between atoms: C_5  and  C_6
REMARK    3  A    between atoms: N_7  and  N_8
REMARK    4  A    between atoms: C_9  and  C_11
REMARK    5  A    between atoms: C_11  and  S_12
REMARK    6  A    between atoms: S_12  and  C_13
REMARK    7  A    between atoms: C_22  and  O_23
REMARK    8  A    between atoms: O_23  and  C_24
REMARK    9  A    between atoms: C_24  and  C_25
REMARK                            x       y       z     vdW  Elec       q    Type
REMARK                         _______ _______ _______ _____ _____    ______ ____
ROOT
ATOM      1  C   UNL     1      39.700   6.318  19.001  0.00  0.00    +0.000 A 
ATOM      2  C   UNL     1      38.778   5.436  18.479  0.00  0.00    +0.000 A 
ATOM      3  C   UNL     1      38.838   4.955  17.186  0.00  0.00    +0.000 A 
ATOM      4  C   UNL     1      39.897   5.405  16.396  0.00  0.00    +0.000 A 
ATOM      5  C   UNL     1      40.814   6.285  16.920  0.00  0.00    +0.000 A 
ATOM      6  C   UNL     1      40.746   6.758  18.206  0.00  0.00    +0.000 A 
ENDROOT
BRANCH   1   8
ATOM      7  C   UNL     1      38.889   7.969  20.618  0.00  0.00    +0.000 C 
ATOM      8  O   UNL     1      39.628   6.800  20.314  0.00  0.00    +0.000 OA
ENDBRANCH   1   8
BRANCH   3   9
ATOM      9  C   UNL     1      37.858   4.023  16.640  0.00  0.00    +0.000 C 
ATOM     10  N   UNL     1      37.377   3.102  17.395  0.00  0.00    +0.000 NA
BRANCH  10  11
ATOM     11  N   UNL     1      36.426   2.179  16.902  0.00  0.00    +0.000 NA
ATOM     12  C   UNL     1      36.049   1.026  17.625  0.00  0.00    +0.000 C 
ATOM     13  O   UNL     1      36.570   0.810  18.739  0.00  0.00    +0.000 OA
BRANCH  12  14
ATOM     14  C   UNL     1      35.038   0.140  16.983  0.00  0.00    +0.000 C 
BRANCH  14  15
ATOM     15  S   UNL     1      35.415  -1.607  17.200  0.00  0.00    +0.000 S 
BRANCH  15  16
ATOM     16  C   UNL     1      37.031  -1.943  16.531  0.00  0.00    +0.000 A 
ATOM     17  C   UNL     1      37.983  -2.681  17.231  0.00  0.00    +0.000 A 
ATOM     18  C   UNL     1      39.220  -2.919  16.679  0.00  0.00    +0.000 A 
ATOM     19  C   UNL     1      39.540  -2.434  15.437  0.00  0.00    +0.000 A 
ATOM     20  C   UNL     1      40.864  -2.659  14.792  0.00  0.00    +0.000 C 
ATOM     21  C   UNL     1      38.600  -1.705  14.749  0.00  0.00    +0.000 A 
ATOM     22  C   UNL     1      37.338  -1.450  15.284  0.00  0.00    +0.000 A 
ENDBRANCH  15  16
ENDBRANCH  14  15
ENDBRANCH  12  14
ENDBRANCH  10  11
ENDBRANCH   3   9
BRANCH   6  23
ATOM     23  O   UNL     1      41.670   7.635  18.710  0.00  0.00    +0.000 OA
BRANCH  23  24
ATOM     24  C   UNL     1      43.045   7.468  18.477  0.00  0.00    +0.000 C 
BRANCH  24  25
ATOM     25  C   UNL     1      43.765   6.816  19.585  0.00  0.00    +0.000 A 
ATOM     26  C   UNL     1      43.074   6.416  20.734  0.00  0.00    +0.000 A 
ATOM     27  C   UNL     1      43.750   5.802  21.768  0.00  0.00    +0.000 A 
ATOM     28  C   UNL     1      45.115   5.557  21.720  0.00  0.00    +0.000 A 
ATOM     29  C   UNL     1      45.801   5.950  20.592  0.00  0.00    +0.000 A 
ATOM     30  C   UNL     1      45.115   6.557  19.576  0.00  0.00    +0.000 A 
ENDBRANCH  24  25
ENDBRANCH  23  24
ENDBRANCH   6  23
TORSDOF 9
ENDMDL
MODEL 2
REMARK VINA RESULT:      -7.7      1.947      3.056
REMARK  Name = 
REMARK  9 active torsions:
REMARK  status: ('A' for Active; 'I' for Inactive)
REMARK    1  A    between atoms: O_2  and  C_3
REMARK    2  A    between atoms: C_5  and  C_6
REMARK    3  A    between atoms: N_7  and  N_8
REMARK    4  A    between atoms: C_9  and  C_11
REMARK    5  A    between atoms: C_11  and  S_12
REMARK    6  A    between atoms: S_12  and  C_13
REMARK    7  A    between atoms: C_22  and  O_23
REMARK    8  A    between atoms: O_23  and  C_24
REMARK    9  A    between atoms: C_24  and  C_25
REMARK                            x       y       z     vdW  Elec       q    Type
REMARK                         _______ _______ _______ _____ _____    ______ ____
ROOT
ATOM      1  C   UNL     1      41.911   6.690  17.840  0.00  0.00    +0.000 A 
ATOM      2  C   UNL     1      40.769   6.131  17.307  0.00  0.00    +0.000 A 
ATOM      3  C   UNL     1      39.655   5.821  18.061  0.00  0.00    +0.000 A 
ATOM      4  C   UNL     1      39.723   6.100  19.427  0.00  0.00    +0.000 A 
ATOM      5  C   UNL     1      40.863   6.658  19.954  0.00  0.00    +0.000 A 
ATOM      6  C   UNL     1      41.965   6.962  19.197  0.00  0.00    +0.000 A 
ENDROOT
BRANCH   1   8
ATOM      7  C   UNL     1      43.083   6.666  15.690  0.00  0.00    +0.000 C 
ATOM      8  O   UNL     1      43.035   7.000  17.065  0.00  0.00    +0.000 OA
ENDBRANCH   1   8
BRANCH   3   9
ATOM      9  C   UNL     1      38.451   5.227  17.492  0.00  0.00    +0.000 C 
ATOM     10  N   UNL     1      38.262   3.961  17.600  0.00  0.00    +0.000 NA
BRANCH  10  11
ATOM     11  N   UNL     1      37.107   3.348  17.061  0.00  0.00    +0.000 NA
ATOM     12  C   UNL     1      37.163   2.485  15.944  0.00  0.00    +0.000 C 
ATOM     13  O   UNL     1      38.269   2.251  15.413  0.00  0.00    +0.000 OA
BRANCH  12  14
ATOM     14  C   UNL     1      35.868   1.913  15.481  0.00  0.00    +0.000 C 
BRANCH  14  15
ATOM     15  S   UNL     1      34.999   1.029  16.787  0.00  0.00    +0.000 S 
BRANCH  15  16
ATOM     16  C   UNL     1      36.077  -0.216  17.465  0.00  0.00    +0.000 A 
ATOM     17  C   UNL     1      36.852  -1.044  16.656  0.00  0.00    +0.000 A 
ATOM     18  C   UNL     1      37.673  -1.993  17.220  0.00  0.00    +0.000 A 
ATOM     19  C   UNL     1      37.741  -2.144  18.581  0.00  0.00    +0.000 A 
ATOM     20  C   UNL     1      38.611  -3.155  19.244  0.00  0.00    +0.000 C 
ATOM     21  C   UNL     1      36.975  -1.327  19.376  0.00  0.00    +0.000 A 
ATOM     22  C   UNL     1      36.135  -0.356  18.833  0.00  0.00    +0.000 A 
ENDBRANCH  15  16
ENDBRANCH  14  15
ENDBRANCH  12  14
ENDBRANCH  10  11
ENDBRANCH   3   9
BRANCH   6  23
ATOM     23  O   UNL     1      43.093   7.517  19.742  0.00  0.00    +0.000 OA
BRANCH  23  24
ATOM     24  C   UNL     1      43.146   7.896  21.094  0.00  0.00    +0.000 C 
BRANCH  24  25
ATOM     25  C   UNL     1      43.842   6.929  21.961  0.00  0.00    +0.000 A 
ATOM     26  C   UNL     1      44.225   7.295  23.256  0.00  0.00    +0.000 A 
ATOM     27  C   UNL     1      44.873   6.387  24.068  0.00  0.00    +0.000 A 
ATOM     28  C   UNL     1      45.168   5.098  23.649  0.00  0.00    +0.000 A 
ATOM     29  C   UNL     1      44.795   4.732  22.374  0.00  0.00    +0.000 A 
ATOM     30  C   UNL     1      44.153   5.645  21.583  0.00  0.00    +0.000 A 
ENDBRANCH  24  25
ENDBRANCH  23  24
ENDBRANCH   6  23
TORSDOF 9
ENDMDL
MODEL 3
REMARK VINA RESULT:      -7.0      6.664     11.023
REMARK  Name = 
REMARK  9 active torsions:
REMARK  status: ('A' for Active; 'I' for Inactive)
REMARK    1  A    between atoms: O_2  and  C_3
REMARK    2  A    between atoms: C_5  and  C_6
REMARK    3  A    between atoms: N_7  and  N_8
REMARK    4  A    between atoms: C_9  and  C_11
REMARK    5  A    between atoms: C_11  and  S_12
REMARK    6  A    between atoms: S_12  and  C_13
REMARK    7  A    between atoms: C_22  and  O_23
REMARK    8  A    between atoms: O_23  and  C_24
REMARK    9  A    between atoms: C_24  and  C_25
REMARK                            x       y       z     vdW  Elec       q    Type
REMARK                         _______ _______ _______ _____ _____    ______ ____
ROOT
ATOM      1  C   UNL     1      37.099   1.249  15.236  0.00  0.00    +0.000 A 
ATOM      2  C   UNL     1      36.439   2.339  14.707  0.00  0.00    +0.000 A 
ATOM      3  C   UNL     1      35.300   2.880  15.268  0.00  0.00    +0.000 A 
ATOM      4  C   UNL     1      34.818   2.268  16.427  0.00  0.00    +0.000 A 
ATOM      5  C   UNL     1      35.478   1.182  16.951  0.00  0.00    +0.000 A 
ATOM      6  C   UNL     1      36.610   0.652  16.387  0.00  0.00    +0.000 A 
ENDROOT
BRANCH   1   8
ATOM      7  C   UNL     1      39.423   1.493  14.505  0.00  0.00    +0.000 C 
ATOM      8  O   UNL     1      38.254   0.709  14.658  0.00  0.00    +0.000 OA
ENDBRANCH   1   8
BRANCH   3   9
ATOM      9  C   UNL     1      34.606   4.031  14.702  0.00  0.00    +0.000 C 
ATOM     10  N   UNL     1      35.280   4.919  14.063  0.00  0.00    +0.000 NA
BRANCH  10  11
ATOM     11  N   UNL     1      34.644   6.050  13.500  0.00  0.00    +0.000 NA
ATOM     12  C   UNL     1      34.927   6.502  12.193  0.00  0.00    +0.000 C 
ATOM     13  O   UNL     1      35.768   5.883  11.505  0.00  0.00    +0.000 OA
BRANCH  12  14
ATOM     14  C   UNL     1      34.185   7.707  11.731  0.00  0.00    +0.000 C 
BRANCH  14  15
ATOM     15  S   UNL     1      35.089   8.638  10.483  0.00  0.00    +0.000 S 
BRANCH  15  16
ATOM     16  C   UNL     1      34.510   8.162   8.867  0.00  0.00    +0.000 A 
ATOM     17  C   UNL     1      34.092   6.863   8.584  0.00  0.00    +0.000 A 
ATOM     18  C   UNL     1      33.650   6.535   7.323  0.00  0.00    +0.000 A 
ATOM     19  C   UNL     1      33.616   7.475   6.325  0.00  0.00    +0.000 A 
ATOM     20  C   UNL     1      33.149   7.175   4.943  0.00  0.00    +0.000 C 
ATOM     21  C   UNL     1      34.029   8.754   6.606  0.00  0.00    +0.000 A 
ATOM     22  C   UNL     1      34.480   9.115   7.875  0.00  0.00    +0.000 A 
ENDBRANCH  15  16
ENDBRANCH  14  15
ENDBRANCH  12  14
ENDBRANCH  10  11
ENDBRANCH   3   9
BRANCH   6  23
ATOM     23  O   UNL     1      37.253  -0.432  16.924  0.00  0.00    +0.000 OA
BRANCH  23  24
ATOM     24  C   UNL     1      36.540  -1.516  17.464  0.00  0.00    +0.000 C 
BRANCH  24  25
ATOM     25  C   UNL     1      36.010  -2.448  16.454  0.00  0.00    +0.000 A 
ATOM     26  C   UNL     1      34.653  -2.790  16.456  0.00  0.00    +0.000 A 
ATOM     27  C   UNL     1      34.158  -3.660  15.507  0.00  0.00    +0.000 A 
ATOM     28  C   UNL     1      34.962  -4.223  14.526  0.00  0.00    +0.000 A 
ATOM     29  C   UNL     1      36.300  -3.890  14.519  0.00  0.00    +0.000 A 
ATOM     30  C   UNL     1      36.773  -3.026  15.468  0.00  0.00    +0.000 A 
ENDBRANCH  24  25
ENDBRANCH  23  24
ENDBRANCH   6  23
TORSDOF 9
ENDMDL
MODEL 4
REMARK VINA RESULT:      -7.0      2.714      3.830
REMARK  Name = 
REMARK  9 active torsions:
REMARK  status: ('A' for Active; 'I' for Inactive)
REMARK    1  A    between atoms: O_2  and  C_3
REMARK    2  A    between atoms: C_5  and  C_6
REMARK    3  A    between atoms: N_7  and  N_8
REMARK    4  A    between atoms: C_9  and  C_11
REMARK    5  A    between atoms: C_11  and  S_12
REMARK    6  A    between atoms: S_12  and  C_13
REMARK    7  A    between atoms: C_22  and  O_23
REMARK    8  A    between atoms: O_23  and  C_24
REMARK    9  A    between atoms: C_24  and  C_25
REMARK                            x       y       z     vdW  Elec       q    Type
REMARK                         _______ _______ _______ _____ _____    ______ ____
ROOT
ATOM      1  C   UNL     1      38.579   7.550  17.543  0.00  0.00    +0.000 A 
ATOM      2  C   UNL     1      38.119   6.439  16.868  0.00  0.00    +0.000 A 
ATOM      3  C   UNL     1      38.324   5.147  17.309  0.00  0.00    +0.000 A 
ATOM      4  C   UNL     1      39.037   4.994  18.500  0.00  0.00    +0.000 A 
ATOM      5  C   UNL     1      39.494   6.105  19.169  0.00  0.00    +0.000 A 
ATOM      6  C   UNL     1      39.285   7.385  18.723  0.00  0.00    +0.000 A 
ENDROOT
BRANCH   1   8
ATOM      7  C   UNL     1      37.084   9.454  17.173  0.00  0.00    +0.000 C 
ATOM      8  O   UNL     1      38.364   8.856  17.085  0.00  0.00    +0.000 OA
ENDBRANCH   1   8
BRANCH   3   9
ATOM      9  C   UNL     1      37.837   3.975  16.590  0.00  0.00    +0.000 C 
ATOM     10  N   UNL     1      37.101   3.121  17.205  0.00  0.00    +0.000 NA
BRANCH  10  11
ATOM     11  N   UNL     1      36.609   1.972  16.542  0.00  0.00    +0.000 NA
ATOM     12  C   UNL     1      36.305   0.777  17.230  0.00  0.00    +0.000 C 
ATOM     13  O   UNL     1      36.474   0.728  18.467  0.00  0.00    +0.000 OA
BRANCH  12  14
ATOM     14  C   UNL     1      35.799  -0.354  16.404  0.00  0.00    +0.000 C 
BRANCH  14  15
ATOM     15  S   UNL     1      36.642  -1.904  16.766  0.00  0.00    +0.000 S 
BRANCH  15  16
ATOM     16  C   UNL     1      38.250  -1.884  16.002  0.00  0.00    +0.000 A 
ATOM     17  C   UNL     1      38.701  -0.797  15.255  0.00  0.00    +0.000 A 
ATOM     18  C   UNL     1      39.952  -0.820  14.682  0.00  0.00    +0.000 A 
ATOM     19  C   UNL     1      40.773  -1.909  14.830  0.00  0.00    +0.000 A 
ATOM     20  C   UNL     1      42.134  -1.988  14.231  0.00  0.00    +0.000 C 
ATOM     21  C   UNL     1      40.325  -2.979  15.566  0.00  0.00    +0.000 A 
ATOM     22  C   UNL     1      39.064  -2.982  16.160  0.00  0.00    +0.000 A 
ENDBRANCH  15  16
ENDBRANCH  14  15
ENDBRANCH  12  14
ENDBRANCH  10  11
ENDBRANCH   3   9
BRANCH   6  23
ATOM     23  O   UNL     1      39.749   8.479  19.404  0.00  0.00    +0.000 OA
BRANCH  23  24
ATOM     24  C   UNL     1      39.109   8.949  20.563  0.00  0.00    +0.000 C 
BRANCH  24  25
ATOM     25  C   UNL     1      39.526  10.301  20.972  0.00  0.00    +0.000 A 
ATOM     26  C   UNL     1      38.565  11.283  21.239  0.00  0.00    +0.000 A 
ATOM     27  C   UNL     1      38.958  12.548  21.625  0.00  0.00    +0.000 A 
ATOM     28  C   UNL     1      40.293  12.899  21.766  0.00  0.00    +0.000 A 
ATOM     29  C   UNL     1      41.244  11.936  21.504  0.00  0.00    +0.000 A 
ATOM     30  C   UNL     1      40.836  10.688  21.122  0.00  0.00    +0.000 A 
ENDBRANCH  24  25
ENDBRANCH  23  24
ENDBRANCH   6  23
TORSDOF 9
ENDMDL
MODEL 5
REMARK VINA RESULT:      -6.9      4.853     10.241
REMARK  Name = 
REMARK  9 active torsions:
REMARK  status: ('A' for Active; 'I' for Inactive)
REMARK    1  A    between atoms: O_2  and  C_3
REMARK    2  A    between atoms: C_5  and  C_6
REMARK    3  A    between atoms: N_7  and  N_8
REMARK    4  A    between atoms: C_9  and  C_11
REMARK    5  A    between atoms: C_11  and  S_12
REMARK    6  A    between atoms: S_12  and  C_13
REMARK    7  A    between atoms: C_22  and  O_23
REMARK    8  A    between atoms: O_23  and  C_24
REMARK    9  A    between atoms: C_24  and  C_25
REMARK                            x       y       z     vdW  Elec       q    Type
REMARK                         _______ _______ _______ _____ _____    ______ ____
ROOT
ATOM      1  C   UNL     1      40.892   6.086  16.735  0.00  0.00    +0.000 A 
ATOM      2  C   UNL     1      41.528   6.500  17.886  0.00  0.00    +0.000 A 
ATOM      3  C   UNL     1      40.958   6.411  19.140  0.00  0.00    +0.000 A 
ATOM      4  C   UNL     1      39.673   5.872  19.210  0.00  0.00    +0.000 A 
ATOM      5  C   UNL     1      39.041   5.461  18.060  0.00  0.00    +0.000 A 
ATOM      6  C   UNL     1      39.616   5.553  16.818  0.00  0.00    +0.000 A 
ENDROOT
BRANCH   1   8
ATOM      7  C   UNL     1      42.849   6.514  15.327  0.00  0.00    +0.000 C 
ATOM      8  O   UNL     1      41.480   6.181  15.468  0.00  0.00    +0.000 OA
ENDBRANCH   1   8
BRANCH   3   9
ATOM      9  C   UNL     1      41.637   6.853  20.353  0.00  0.00    +0.000 C 
ATOM     10  N   UNL     1      42.613   6.157  20.816  0.00  0.00    +0.000 NA
BRANCH  10  11
ATOM     11  N   UNL     1      43.295   6.552  21.990  0.00  0.00    +0.000 NA
ATOM     12  C   UNL     1      44.288   5.748  22.592  0.00  0.00    +0.000 C 
ATOM     13  O   UNL     1      44.578   4.650  22.071  0.00  0.00    +0.000 OA
BRANCH  12  14
ATOM     14  C   UNL     1      44.922   6.288  23.826  0.00  0.00    +0.000 C 
BRANCH  14  15
ATOM     15  S   UNL     1      45.289   5.002  25.032  0.00  0.00    +0.000 S 
BRANCH  15  16
ATOM     16  C   UNL     1      44.024   5.000  26.286  0.00  0.00    +0.000 A 
ATOM     17  C   UNL     1      43.721   3.861  27.029  0.00  0.00    +0.000 A 
ATOM     18  C   UNL     1      42.737   3.902  27.990  0.00  0.00    +0.000 A 
ATOM     19  C   UNL     1      42.036   5.056  28.230  0.00  0.00    +0.000 A 
ATOM     20  C   UNL     1      40.960   5.156  29.255  0.00  0.00    +0.000 C 
ATOM     21  C   UNL     1      42.336   6.177  27.495  0.00  0.00    +0.000 A 
ATOM     22  C   UNL     1      43.329   6.165  26.516  0.00  0.00    +0.000 A 
ENDBRANCH  15  16
ENDBRANCH  14  15
ENDBRANCH  12  14
ENDBRANCH  10  11
ENDBRANCH   3   9
BRANCH   6  23
ATOM     23  O   UNL     1      38.969   5.138  15.684  0.00  0.00    +0.000 OA
BRANCH  23  24
ATOM     24  C   UNL     1      38.607   3.794  15.494  0.00  0.00    +0.000 C 
BRANCH  24  25
ATOM     25  C   UNL     1      37.153   3.557  15.509  0.00  0.00    +0.000 A 
ATOM     26  C   UNL     1      36.324   4.215  14.594  0.00  0.00    +0.000 A 
ATOM     27  C   UNL     1      34.963   3.988  14.607  0.00  0.00    +0.000 A 
ATOM     28  C   UNL     1      34.366   3.117  15.507  0.00  0.00    +0.000 A 
ATOM     29  C   UNL     1      35.177   2.468  16.412  0.00  0.00    +0.000 A 
ATOM     30  C   UNL     1      36.524   2.704  16.384  0.00  0.00    +0.000 A 
ENDBRANCH  24  25
ENDBRANCH  23  24
ENDBRANCH   6  23
TORSDOF 9
ENDMDL
MODEL 6
REMARK VINA RESULT:      -6.8      2.799      9.566
REMARK  Name = 
REMARK  9 active torsions:
REMARK  status: ('A' for Active; 'I' for Inactive)
REMARK    1  A    between atoms: O_2  and  C_3
REMARK    2  A    between atoms: C_5  and  C_6
REMARK    3  A    between atoms: N_7  and  N_8
REMARK    4  A    between atoms: C_9  and  C_11
REMARK    5  A    between atoms: C_11  and  S_12
REMARK    6  A    between atoms: S_12  and  C_13
REMARK    7  A    between atoms: C_22  and  O_23
REMARK    8  A    between atoms: O_23  and  C_24
REMARK    9  A    between atoms: C_24  and  C_25
REMARK                            x       y       z     vdW  Elec       q    Type
REMARK                         _______ _______ _______ _____ _____    ______ ____
ROOT
ATOM      1  C   UNL     1      37.798  -0.187  14.583  0.00  0.00    +0.000 A 
ATOM      2  C   UNL     1      38.259   1.105  14.729  0.00  0.00    +0.000 A 
ATOM      3  C   UNL     1      37.516   2.111  15.314  0.00  0.00    +0.000 A 
ATOM      4  C   UNL     1      36.241   1.770  15.768  0.00  0.00    +0.000 A 
ATOM      5  C   UNL     1      35.786   0.482  15.619  0.00  0.00    +0.000 A 
ATOM      6  C   UNL     1      36.531  -0.512  15.037  0.00  0.00    +0.000 A 
ENDROOT
BRANCH   1   8
ATOM      7  C   UNL     1      39.726  -1.696  14.621  0.00  0.00    +0.000 C 
ATOM      8  O   UNL     1      38.561  -1.200  13.988  0.00  0.00    +0.000 OA
ENDBRANCH   1   8
BRANCH   3   9
ATOM      9  C   UNL     1      38.008   3.476  15.464  0.00  0.00    +0.000 C 
ATOM     10  N   UNL     1      37.707   4.141  16.521  0.00  0.00    +0.000 NA
BRANCH  10  11
ATOM     11  N   UNL     1      38.165   5.466  16.703  0.00  0.00    +0.000 NA
ATOM     12  C   UNL     1      38.815   5.884  17.885  0.00  0.00    +0.000 C 
ATOM     13  O   UNL     1      38.996   5.057  18.803  0.00  0.00    +0.000 OA
BRANCH  12  14
ATOM     14  C   UNL     1      39.241   7.310  17.940  0.00  0.00    +0.000 C 
BRANCH  14  15
ATOM     15  S   UNL     1      40.916   7.554  17.328  0.00  0.00    +0.000 S 
BRANCH  15  16
ATOM     16  C   UNL     1      42.074   7.117  18.609  0.00  0.00    +0.000 A 
ATOM     17  C   UNL     1      43.443   7.016  18.366  0.00  0.00    +0.000 A 
ATOM     18  C   UNL     1      44.305   6.676  19.384  0.00  0.00    +0.000 A 
ATOM     19  C   UNL     1      43.836   6.428  20.648  0.00  0.00    +0.000 A 
ATOM     20  C   UNL     1      44.722   6.055  21.785  0.00  0.00    +0.000 C 
ATOM     21  C   UNL     1      42.486   6.528  20.884  0.00  0.00    +0.000 A 
ATOM     22  C   UNL     1      41.590   6.871  19.873  0.00  0.00    +0.000 A 
ENDBRANCH  15  16
ENDBRANCH  14  15
ENDBRANCH  12  14
ENDBRANCH  10  11
ENDBRANCH   3   9
BRANCH   6  23
ATOM     23  O   UNL     1      36.058  -1.790  14.899  0.00  0.00    +0.000 OA
BRANCH  23  24
ATOM     24  C   UNL     1      35.611  -2.533  16.005  0.00  0.00    +0.000 C 
BRANCH  24  25
ATOM     25  C   UNL     1      36.633  -2.732  17.047  0.00  0.00    +0.000 A 
ATOM     26  C   UNL     1      36.580  -1.992  18.234  0.00  0.00    +0.000 A 
ATOM     27  C   UNL     1      37.536  -2.183  19.210  0.00  0.00    +0.000 A 
ATOM     28  C   UNL     1      38.570  -3.096  19.066  0.00  0.00    +0.000 A 
ATOM     29  C   UNL     1      38.629  -3.827  17.899  0.00  0.00    +0.000 A 
ATOM     30  C   UNL     1      37.672  -3.624  16.942  0.00  0.00    +0.000 A 
ENDBRANCH  24  25
ENDBRANCH  23  24
ENDBRANCH   6  23
TORSDOF 9
ENDMDL
MODEL 7
REMARK VINA RESULT:      -6.8      2.092      2.974
REMARK  Name = 
REMARK  9 active torsions:
REMARK  status: ('A' for Active; 'I' for Inactive)
REMARK    1  A    between atoms: O_2  and  C_3
REMARK    2  A    between atoms: C_5  and  C_6
REMARK    3  A    between atoms: N_7  and  N_8
REMARK    4  A    between atoms: C_9  and  C_11
REMARK    5  A    between atoms: C_11  and  S_12
REMARK    6  A    between atoms: S_12  and  C_13
REMARK    7  A    between atoms: C_22  and  O_23
REMARK    8  A    between atoms: O_23  and  C_24
REMARK    9  A    between atoms: C_24  and  C_25
REMARK                            x       y       z     vdW  Elec       q    Type
REMARK                         _______ _______ _______ _____ _____    ______ ____
ROOT
ATOM      1  C   UNL     1      41.628   7.023  17.727  0.00  0.00    +0.000 A 
ATOM      2  C   UNL     1      40.578   6.266  17.253  0.00  0.00    +0.000 A 
ATOM      3  C   UNL     1      39.605   5.727  18.071  0.00  0.00    +0.000 A 
ATOM      4  C   UNL     1      39.721   5.981  19.438  0.00  0.00    +0.000 A 
ATOM      5  C   UNL     1      40.770   6.736  19.906  0.00  0.00    +0.000 A 
ATOM      6  C   UNL     1      41.732   7.267  19.086  0.00  0.00    +0.000 A 
ENDROOT
BRANCH   1   8
ATOM      7  C   UNL     1      43.623   6.745  16.334  0.00  0.00    +0.000 C 
ATOM      8  O   UNL     1      42.610   7.565  16.888  0.00  0.00    +0.000 OA
ENDBRANCH   1   8
BRANCH   3   9
ATOM      9  C   UNL     1      38.497   4.925  17.564  0.00  0.00    +0.000 C 
ATOM     10  N   UNL     1      38.736   3.985  16.720  0.00  0.00    +0.000 NA
BRANCH  10  11
ATOM     11  N   UNL     1      37.689   3.186  16.205  0.00  0.00    +0.000 NA
ATOM     12  C   UNL     1      37.257   3.281  14.864  0.00  0.00    +0.000 C 
ATOM     13  O   UNL     1      37.817   4.098  14.102  0.00  0.00    +0.000 OA
BRANCH  12  14
ATOM     14  C   UNL     1      36.142   2.381  14.460  0.00  0.00    +0.000 C 
BRANCH  14  15
ATOM     15  S   UNL     1      36.677   1.083  13.333  0.00  0.00    +0.000 S 
BRANCH  15  16
ATOM     16  C   UNL     1      37.480  -0.204  14.266  0.00  0.00    +0.000 A 
ATOM     17  C   UNL     1      38.815  -0.114  14.653  0.00  0.00    +0.000 A 
ATOM     18  C   UNL     1      39.399  -1.131  15.375  0.00  0.00    +0.000 A 
ATOM     19  C   UNL     1      38.682  -2.247  15.722  0.00  0.00    +0.000 A 
ATOM     20  C   UNL     1      39.262  -3.376  16.500  0.00  0.00    +0.000 C 
ATOM     21  C   UNL     1      37.365  -2.333  15.338  0.00  0.00    +0.000 A 
ATOM     22  C   UNL     1      36.748  -1.318  14.608  0.00  0.00    +0.000 A 
ENDBRANCH  15  16
ENDBRANCH  14  15
ENDBRANCH  12  14
ENDBRANCH  10  11
ENDBRANCH   3   9
BRANCH   6  23
ATOM     23  O   UNL     1      42.770   8.017  19.572  0.00  0.00    +0.000 OA
BRANCH  23  24
ATOM     24  C   UNL     1      43.258   7.838  20.878  0.00  0.00    +0.000 C 
BRANCH  24  25
ATOM     25  C   UNL     1      44.174   6.694  21.023  0.00  0.00    +0.000 A 
ATOM     26  C   UNL     1      45.332   6.615  20.241  0.00  0.00    +0.000 A 
ATOM     27  C   UNL     1      46.190   5.545  20.382  0.00  0.00    +0.000 A 
ATOM     28  C   UNL     1      45.953   4.518  21.285  0.00  0.00    +0.000 A 
ATOM     29  C   UNL     1      44.814   4.589  22.057  0.00  0.00    +0.000 A 
ATOM     30  C   UNL     1      43.974   5.658  21.904  0.00  0.00    +0.000 A 
ENDBRANCH  24  25
ENDBRANCH  23  24
ENDBRANCH   6  23
TORSDOF 9
ENDMDL
MODEL 8
REMARK VINA RESULT:      -6.7      7.137     11.332
REMARK  Name = 
REMARK  9 active torsions:
REMARK  status: ('A' for Active; 'I' for Inactive)
REMARK    1  A    between atoms: O_2  and  C_3
REMARK    2  A    between atoms: C_5  and  C_6
REMARK    3  A    between atoms: N_7  and  N_8
REMARK    4  A    between atoms: C_9  and  C_11
REMARK    5  A    between atoms: C_11  and  S_12
REMARK    6  A    between atoms: S_12  and  C_13
REMARK    7  A    between atoms: C_22  and  O_23
REMARK    8  A    between atoms: O_23  and  C_24
REMARK    9  A    between atoms: C_24  and  C_25
REMARK                            x       y       z     vdW  Elec       q    Type
REMARK                         _______ _______ _______ _____ _____    ______ ____
ROOT
ATOM      1  C   UNL     1      36.626   0.330  15.185  0.00  0.00    +0.000 A 
ATOM      2  C   UNL     1      36.114   1.559  14.826  0.00  0.00    +0.000 A 
ATOM      3  C   UNL     1      35.144   2.218  15.556  0.00  0.00    +0.000 A 
ATOM      4  C   UNL     1      34.681   1.579  16.707  0.00  0.00    +0.000 A 
ATOM      5  C   UNL     1      35.194   0.353  17.061  0.00  0.00    +0.000 A 
ATOM      6  C   UNL     1      36.157  -0.293  16.330  0.00  0.00    +0.000 A 
ENDROOT
BRANCH   1   8
ATOM      7  C   UNL     1      37.491  -0.448  13.031  0.00  0.00    +0.000 C 
ATOM      8  O   UNL     1      37.609  -0.328  14.437  0.00  0.00    +0.000 OA
ENDBRANCH   1   8
BRANCH   3   9
ATOM      9  C   UNL     1      34.606   3.517  15.170  0.00  0.00    +0.000 C 
ATOM     10  N   UNL     1      35.267   4.253  14.350  0.00  0.00    +0.000 NA
BRANCH  10  11
ATOM     11  N   UNL     1      34.778   5.519  13.952  0.00  0.00    +0.000 NA
ATOM     12  C   UNL     1      35.166   6.130  12.740  0.00  0.00    +0.000 C 
ATOM     13  O   UNL     1      35.968   5.535  11.989  0.00  0.00    +0.000 OA
BRANCH  12  14
ATOM     14  C   UNL     1      34.575   7.466  12.450  0.00  0.00    +0.000 C 
BRANCH  14  15
ATOM     15  S   UNL     1      35.512   8.811  13.195  0.00  0.00    +0.000 S 
BRANCH  15  16
ATOM     16  C   UNL     1      34.687   9.343  14.681  0.00  0.00    +0.000 A 
ATOM     17  C   UNL     1      35.017  10.534  15.324  0.00  0.00    +0.000 A 
ATOM     18  C   UNL     1      34.355  10.910  16.470  0.00  0.00    +0.000 A 
ATOM     19  C   UNL     1      33.365  10.123  17.000  0.00  0.00    +0.000 A 
ATOM     20  C   UNL     1      32.617  10.480  18.238  0.00  0.00    +0.000 C 
ATOM     21  C   UNL     1      33.042   8.949  16.364  0.00  0.00    +0.000 A 
ATOM     22  C   UNL     1      33.695   8.544  15.201  0.00  0.00    +0.000 A 
ENDBRANCH  15  16
ENDBRANCH  14  15
ENDBRANCH  12  14
ENDBRANCH  10  11
ENDBRANCH   3   9
BRANCH   6  23
ATOM     23  O   UNL     1      36.655  -1.515  16.700  0.00  0.00    +0.000 OA
BRANCH  23  24
ATOM     24  C   UNL     1      35.826  -2.515  17.234  0.00  0.00    +0.000 C 
BRANCH  24  25
ATOM     25  C   UNL     1      35.142  -3.334  16.217  0.00  0.00    +0.000 A 
ATOM     26  C   UNL     1      35.886  -4.015  15.247  0.00  0.00    +0.000 A 
ATOM     27  C   UNL     1      35.244  -4.785  14.299  0.00  0.00    +0.000 A 
ATOM     28  C   UNL     1      33.864  -4.917  14.262  0.00  0.00    +0.000 A 
ATOM     29  C   UNL     1      33.126  -4.247  15.214  0.00  0.00    +0.000 A 
ATOM     30  C   UNL     1      33.779  -3.490  16.147  0.00  0.00    +0.000 A 
ENDBRANCH  24  25
ENDBRANCH  23  24
ENDBRANCH   6  23
TORSDOF 9
ENDMDL
MODEL 9
REMARK VINA RESULT:      -6.7      2.576      4.351
REMARK  Name = 
REMARK  9 active torsions:
REMARK  status: ('A' for Active; 'I' for Inactive)
REMARK    1  A    between atoms: O_2  and  C_3
REMARK    2  A    between atoms: C_5  and  C_6
REMARK    3  A    between atoms: N_7  and  N_8
REMARK    4  A    between atoms: C_9  and  C_11
REMARK    5  A    between atoms: C_11  and  S_12
REMARK    6  A    between atoms: S_12  and  C_13
REMARK    7  A    between atoms: C_22  and  O_23
REMARK    8  A    between atoms: O_23  and  C_24
REMARK    9  A    between atoms: C_24  and  C_25
REMARK                            x       y       z     vdW  Elec       q    Type
REMARK                         _______ _______ _______ _____ _____    ______ ____
ROOT
ATOM      1  C   UNL     1      39.892   6.474  19.678  0.00  0.00    +0.000 A 
ATOM      2  C   UNL     1      39.616   5.540  18.701  0.00  0.00    +0.000 A 
ATOM      3  C   UNL     1      38.633   5.711  17.747  0.00  0.00    +0.000 A 
ATOM      4  C   UNL     1      37.901   6.898  17.803  0.00  0.00    +0.000 A 
ATOM      5  C   UNL     1      38.179   7.826  18.778  0.00  0.00    +0.000 A 
ATOM      6  C   UNL     1      39.158   7.648  19.722  0.00  0.00    +0.000 A 
ENDROOT
BRANCH   1   8
ATOM      7  C   UNL     1      42.260   6.409  20.298  0.00  0.00    +0.000 C 
ATOM      8  O   UNL     1      40.891   6.289  20.641  0.00  0.00    +0.000 OA
ENDBRANCH   1   8
BRANCH   3   9
ATOM      9  C   UNL     1      38.345   4.719  16.718  0.00  0.00    +0.000 C 
ATOM     10  N   UNL     1      37.884   3.570  17.063  0.00  0.00    +0.000 NA
BRANCH  10  11
ATOM     11  N   UNL     1      37.593   2.581  16.095  0.00  0.00    +0.000 NA
ATOM     12  C   UNL     1      36.313   1.998  15.974  0.00  0.00    +0.000 C 
ATOM     13  O   UNL     1      35.402   2.366  16.747  0.00  0.00    +0.000 OA
BRANCH  12  14
ATOM     14  C   UNL     1      36.150   0.967  14.912  0.00  0.00    +0.000 C 
BRANCH  14  15
ATOM     15  S   UNL     1      37.702   0.158  14.492  0.00  0.00    +0.000 S 
BRANCH  15  16
ATOM     16  C   UNL     1      37.730  -1.466  15.225  0.00  0.00    +0.000 A 
ATOM     17  C   UNL     1      36.917  -2.499  14.764  0.00  0.00    +0.000 A 
ATOM     18  C   UNL     1      36.969  -3.740  15.357  0.00  0.00    +0.000 A 
ATOM     19  C   UNL     1      37.815  -3.981  16.409  0.00  0.00    +0.000 A 
ATOM     20  C   UNL     1      37.911  -5.303  17.089  0.00  0.00    +0.000 C 
ATOM     21  C   UNL     1      38.615  -2.960  16.861  0.00  0.00    +0.000 A 
ATOM     22  C   UNL     1      38.585  -1.693  16.279  0.00  0.00    +0.000 A 
ENDBRANCH  15  16
ENDBRANCH  14  15
ENDBRANCH  12  14
ENDBRANCH  10  11
ENDBRANCH   3   9
BRANCH   6  23
ATOM     23  O   UNL     1      39.419   8.585  20.687  0.00  0.00    +0.000 OA
BRANCH  23  24
ATOM     24  C   UNL     1      38.488   9.587  21.010  0.00  0.00    +0.000 C 
BRANCH  24  25
ATOM     25  C   UNL     1      38.998  10.958  20.836  0.00  0.00    +0.000 A 
ATOM     26  C   UNL     1      38.154  11.967  20.360  0.00  0.00    +0.000 A 
ATOM     27  C   UNL     1      38.632  13.251  20.202  0.00  0.00    +0.000 A 
ATOM     28  C   UNL     1      39.943  13.596  20.501  0.00  0.00    +0.000 A 
ATOM     29  C   UNL     1      40.780  12.606  20.969  0.00  0.00    +0.000 A 
ATOM     30  C   UNL     1      40.288  11.339  21.119  0.00  0.00    +0.000 A 
ENDBRANCH  24  25
ENDBRANCH  23  24
ENDBRANCH   6  23
TORSDOF 9
ENDMDL
MODEL 10
REMARK VINA RESULT:      -6.6      2.793      4.911
REMARK  Name = 
REMARK  9 active torsions:
REMARK  status: ('A' for Active; 'I' for Inactive)
REMARK    1  A    between atoms: O_2  and  C_3
REMARK    2  A    between atoms: C_5  and  C_6
REMARK    3  A    between atoms: N_7  and  N_8
REMARK    4  A    between atoms: C_9  and  C_11
REMARK    5  A    between atoms: C_11  and  S_12
REMARK    6  A    between atoms: S_12  and  C_13
REMARK    7  A    between atoms: C_22  and  O_23
REMARK    8  A    between atoms: O_23  and  C_24
REMARK    9  A    between atoms: C_24  and  C_25
REMARK                            x       y       z     vdW  Elec       q    Type
REMARK                         _______ _______ _______ _____ _____    ______ ____
ROOT
ATOM      1  C   UNL     1      40.544   7.190  19.711  0.00  0.00    +0.000 A 
ATOM      2  C   UNL     1      40.338   6.063  18.945  0.00  0.00    +0.000 A 
ATOM      3  C   UNL     1      39.196   5.854  18.198  0.00  0.00    +0.000 A 
ATOM      4  C   UNL     1      38.223   6.853  18.244  0.00  0.00    +0.000 A 
ATOM      5  C   UNL     1      38.432   7.975  19.010  0.00  0.00    +0.000 A 
ATOM      6  C   UNL     1      39.570   8.174  19.749  0.00  0.00    +0.000 A 
ENDROOT
BRANCH   1   8
ATOM      7  C   UNL     1      42.532   6.300  20.831  0.00  0.00    +0.000 C 
ATOM      8  O   UNL     1      41.707   7.391  20.465  0.00  0.00    +0.000 OA
ENDBRANCH   1   8
BRANCH   3   9
ATOM      9  C   UNL     1      38.983   4.658  17.391  0.00  0.00    +0.000 C 
ATOM     10  N   UNL     1      37.784   4.254  17.168  0.00  0.00    +0.000 NA
BRANCH  10  11
ATOM     11  N   UNL     1      37.537   3.099  16.391  0.00  0.00    +0.000 NA
ATOM     12  C   UNL     1      36.503   3.043  15.431  0.00  0.00    +0.000 C 
ATOM     13  O   UNL     1      35.780   4.047  15.258  0.00  0.00    +0.000 OA
BRANCH  12  14
ATOM     14  C   UNL     1      36.355   1.761  14.687  0.00  0.00    +0.000 C 
BRANCH  14  15
ATOM     15  S   UNL     1      36.730   0.325  15.707  0.00  0.00    +0.000 S 
BRANCH  15  16
ATOM     16  C   UNL     1      38.350  -0.282  15.285  0.00  0.00    +0.000 A 
ATOM     17  C   UNL     1      39.220   0.438  14.469  0.00  0.00    +0.000 A 
ATOM     18  C   UNL     1      40.465  -0.066  14.167  0.00  0.00    +0.000 A 
ATOM     19  C   UNL     1      40.869  -1.281  14.658  0.00  0.00    +0.000 A 
ATOM     20  C   UNL     1      42.203  -1.874  14.363  0.00  0.00    +0.000 C 
ATOM     21  C   UNL     1      40.009  -1.988  15.462  0.00  0.00    +0.000 A 
ATOM     22  C   UNL     1      38.743  -1.502  15.786  0.00  0.00    +0.000 A 
ENDBRANCH  15  16
ENDBRANCH  14  15
ENDBRANCH  12  14
ENDBRANCH  10  11
ENDBRANCH   3   9
BRANCH   6  23
ATOM     23  O   UNL     1      39.759   9.300  20.506  0.00  0.00    +0.000 OA
BRANCH  23  24
ATOM     24  C   UNL     1      38.709   9.878  21.239  0.00  0.00    +0.000 C 
BRANCH  24  25
ATOM     25  C   UNL     1      38.380  11.255  20.833  0.00  0.00    +0.000 A 
ATOM     26  C   UNL     1      38.610  12.321  21.710  0.00  0.00    +0.000 A 
ATOM     27  C   UNL     1      38.304  13.610  21.326  0.00  0.00    +0.000 A 
ATOM     28  C   UNL     1      37.769  13.905  20.080  0.00  0.00    +0.000 A 
ATOM     29  C   UNL     1      37.540  12.860  19.212  0.00  0.00    +0.000 A 
ATOM     30  C   UNL     1      37.849  11.588  19.610  0.00  0.00    +0.000 A 
ENDBRANCH  24  25
ENDBRANCH  23  24
ENDBRANCH   6  23
TORSDOF 9
ENDMDL
