MODEL 1
REMARK VINA RESULT:      -6.4      0.000      0.000
REMARK  Name = 
REMARK  5 active torsions:
REMARK  status: ('A' for Active; 'I' for Inactive)
REMARK    1  A    between atoms: C_2  and  O_3
REMARK    2  A    between atoms: O_3  and  C_4
REMARK    3  A    between atoms: C_4  and  C_6
REMARK    4  A    between atoms: C_8  and  C_9
REMARK    5  A    between atoms: C_12  and  O_13
REMARK                            x       y       z     vdW  Elec       q    Type
REMARK                         _______ _______ _______ _____ _____    ______ ____
ROOT
ATOM      1  C   UNL     1      15.219  11.737  33.417  0.00  0.00    +0.000 A 
ATOM      2  C   UNL     1      15.978  10.957  34.209  0.00  0.00    +0.000 A 
ATOM      3  C   UNL     1      16.090  11.276  35.521  0.00  0.00    +0.000 A 
ATOM      4  S   UNL     1      15.116  12.689  35.637  0.00  0.00    +0.000 S 
ATOM      5  C   UNL     1      14.611  12.810  34.019  0.00  0.00    +0.000 A 
ATOM      6  N   UNL     1      13.758  13.774  33.367  0.00  0.00    +0.000 NA
ENDROOT
BRANCH   3   7
ATOM      7  C   UNL     1      16.846  10.596  36.578  0.00  0.00    +0.000 A 
ATOM      8  C   UNL     1      16.485  10.665  37.884  0.00  0.00    +0.000 A 
ATOM      9  C   UNL     1      17.229  10.002  38.880  0.00  0.00    +0.000 A 
ATOM     10  C   UNL     1      18.339   9.273  38.512  0.00  0.00    +0.000 A 
ATOM     11  C   UNL     1      18.712   9.197  37.181  0.00  0.00    +0.000 A 
ATOM     12  C   UNL     1      17.951   9.870  36.213  0.00  0.00    +0.000 A 
BRANCH  10  13
ATOM     13  O   UNL     1      19.099   8.603  39.473  0.00  0.00    +0.000 OA
ATOM     14  C   UNL     1      18.718   7.299  39.860  0.00  0.00    +0.000 C 
ENDBRANCH  10  13
ENDBRANCH   3   7
BRANCH   1  15
ATOM     15  C   UNL     1      15.047  11.448  31.959  0.00  0.00    +0.000 C 
ATOM     16  O   UNL     1      14.256  10.566  31.547  0.00  0.00    +0.000 OA
BRANCH  15  17
ATOM     17  O   UNL     1      15.764  12.150  31.014  0.00  0.00    +0.000 OA
BRANCH  17  19
ATOM     18  C   UNL     1      16.338  14.357  30.218  0.00  0.00    +0.000 C 
ATOM     19  C   UNL     1      15.285  13.257  30.313  0.00  0.00    +0.000 C 
ENDBRANCH  17  19
ENDBRANCH  15  17
ENDBRANCH   1  15
TORSDOF 5
ENDMDL
MODEL 2
REMARK VINA RESULT:      -5.9      1.966      2.611
REMARK  Name = 
REMARK  5 active torsions:
REMARK  status: ('A' for Active; 'I' for Inactive)
REMARK    1  A    between atoms: C_2  and  O_3
REMARK    2  A    between atoms: O_3  and  C_4
REMARK    3  A    between atoms: C_4  and  C_6
REMARK    4  A    between atoms: C_8  and  C_9
REMARK    5  A    between atoms: C_12  and  O_13
REMARK                            x       y       z     vdW  Elec       q    Type
REMARK                         _______ _______ _______ _____ _____    ______ ____
ROOT
ATOM      1  C   UNL     1      14.670  12.200  35.819  0.00  0.00    +0.000 A 
ATOM      2  C   UNL     1      15.852  11.643  36.145  0.00  0.00    +0.000 A 
ATOM      3  C   UNL     1      15.983  11.061  37.362  0.00  0.00    +0.000 A 
ATOM      4  S   UNL     1      14.426  11.302  38.051  0.00  0.00    +0.000 S 
ATOM      5  C   UNL     1      13.681  12.128  36.767  0.00  0.00    +0.000 A 
ATOM      6  N   UNL     1      12.344  12.654  36.634  0.00  0.00    +0.000 NA
ENDROOT
BRANCH   3   7
ATOM      7  C   UNL     1      17.151  10.394  37.948  0.00  0.00    +0.000 A 
ATOM      8  C   UNL     1      18.325  10.272  37.279  0.00  0.00    +0.000 A 
ATOM      9  C   UNL     1      19.432   9.626  37.864  0.00  0.00    +0.000 A 
ATOM     10  C   UNL     1      19.311   9.115  39.138  0.00  0.00    +0.000 A 
ATOM     11  C   UNL     1      18.117   9.237  39.827  0.00  0.00    +0.000 A 
ATOM     12  C   UNL     1      17.032   9.884  39.215  0.00  0.00    +0.000 A 
BRANCH  10  13
ATOM     13  O   UNL     1      20.388   8.470  39.750  0.00  0.00    +0.000 OA
ATOM     14  C   UNL     1      20.151   7.672  40.891  0.00  0.00    +0.000 C 
ENDBRANCH  10  13
ENDBRANCH   3   7
BRANCH   1  15
ATOM     15  C   UNL     1      14.450  12.859  34.495  0.00  0.00    +0.000 C 
ATOM     16  O   UNL     1      13.910  13.987  34.397  0.00  0.00    +0.000 OA
BRANCH  15  17
ATOM     17  O   UNL     1      14.839  12.239  33.327  0.00  0.00    +0.000 OA
BRANCH  17  19
ATOM     18  C   UNL     1      14.761  11.654  30.985  0.00  0.00    +0.000 C 
ATOM     19  C   UNL     1      14.613  12.741  32.046  0.00  0.00    +0.000 C 
ENDBRANCH  17  19
ENDBRANCH  15  17
ENDBRANCH   1  15
TORSDOF 5
ENDMDL
MODEL 3
REMARK VINA RESULT:      -5.7     19.415     21.992
REMARK  Name = 
REMARK  5 active torsions:
REMARK  status: ('A' for Active; 'I' for Inactive)
REMARK    1  A    between atoms: C_2  and  O_3
REMARK    2  A    between atoms: O_3  and  C_4
REMARK    3  A    between atoms: C_4  and  C_6
REMARK    4  A    between atoms: C_8  and  C_9
REMARK    5  A    between atoms: C_12  and  O_13
REMARK                            x       y       z     vdW  Elec       q    Type
REMARK                         _______ _______ _______ _____ _____    ______ ____
ROOT
ATOM      1  C   UNL     1      33.312  -3.617  33.555  0.00  0.00    +0.000 A 
ATOM      2  C   UNL     1      33.708  -2.331  33.500  0.00  0.00    +0.000 A 
ATOM      3  C   UNL     1      33.102  -1.429  34.310  0.00  0.00    +0.000 A 
ATOM      4  S   UNL     1      31.965  -2.405  35.155  0.00  0.00    +0.000 S 
ATOM      5  C   UNL     1      32.310  -3.909  34.445  0.00  0.00    +0.000 A 
ATOM      6  N   UNL     1      31.733  -5.213  34.670  0.00  0.00    +0.000 NA
ENDROOT
BRANCH   3   7
ATOM      7  C   UNL     1      33.346   0.011  34.438  0.00  0.00    +0.000 A 
ATOM      8  C   UNL     1      33.233   0.861  33.386  0.00  0.00    +0.000 A 
ATOM      9  C   UNL     1      33.474   2.240  33.536  0.00  0.00    +0.000 A 
ATOM     10  C   UNL     1      33.830   2.726  34.776  0.00  0.00    +0.000 A 
ATOM     11  C   UNL     1      33.946   1.866  35.854  0.00  0.00    +0.000 A 
ATOM     12  C   UNL     1      33.700   0.497  35.671  0.00  0.00    +0.000 A 
BRANCH  10  13
ATOM     13  O   UNL     1      34.075   4.089  34.961  0.00  0.00    +0.000 OA
ATOM     14  C   UNL     1      33.265   5.029  34.286  0.00  0.00    +0.000 C 
ENDBRANCH  10  13
ENDBRANCH   3   7
BRANCH   1  15
ATOM     15  C   UNL     1      33.935  -4.668  32.692  0.00  0.00    +0.000 C 
ATOM     16  O   UNL     1      34.845  -5.419  33.115  0.00  0.00    +0.000 OA
BRANCH  15  17
ATOM     17  O   UNL     1      33.521  -4.844  31.389  0.00  0.00    +0.000 OA
BRANCH  17  19
ATOM     18  C   UNL     1      33.959  -5.427  29.086  0.00  0.00    +0.000 C 
ATOM     19  C   UNL     1      33.956  -5.868  30.548  0.00  0.00    +0.000 C 
ENDBRANCH  17  19
ENDBRANCH  15  17
ENDBRANCH   1  15
TORSDOF 5
ENDMDL
MODEL 4
REMARK VINA RESULT:      -5.7      2.977      7.813
REMARK  Name = 
REMARK  5 active torsions:
REMARK  status: ('A' for Active; 'I' for Inactive)
REMARK    1  A    between atoms: C_2  and  O_3
REMARK    2  A    between atoms: O_3  and  C_4
REMARK    3  A    between atoms: C_4  and  C_6
REMARK    4  A    between atoms: C_8  and  C_9
REMARK    5  A    between atoms: C_12  and  O_13
REMARK                            x       y       z     vdW  Elec       q    Type
REMARK                         _______ _______ _______ _____ _____    ______ ____
ROOT
ATOM      1  C   UNL     1      17.541   9.871  39.402  0.00  0.00    +0.000 A 
ATOM      2  C   UNL     1      16.753  10.112  38.336  0.00  0.00    +0.000 A 
ATOM      3  C   UNL     1      17.294  10.719  37.252  0.00  0.00    +0.000 A 
ATOM      4  S   UNL     1      18.926  10.951  37.741  0.00  0.00    +0.000 S 
ATOM      5  C   UNL     1      18.849  10.268  39.295  0.00  0.00    +0.000 A 
ATOM      6  N   UNL     1      19.866  10.111  40.308  0.00  0.00    +0.000 NA
ENDROOT
BRANCH   3   7
ATOM      7  C   UNL     1      16.657  11.087  35.984  0.00  0.00    +0.000 A 
ATOM      8  C   UNL     1      15.566  11.891  35.929  0.00  0.00    +0.000 A 
ATOM      9  C   UNL     1      14.972  12.229  34.698  0.00  0.00    +0.000 A 
ATOM     10  C   UNL     1      15.517  11.731  33.533  0.00  0.00    +0.000 A 
ATOM     11  C   UNL     1      16.631  10.912  33.580  0.00  0.00    +0.000 A 
ATOM     12  C   UNL     1      17.198  10.593  34.824  0.00  0.00    +0.000 A 
BRANCH  10  13
ATOM     13  O   UNL     1      14.955  12.047  32.294  0.00  0.00    +0.000 OA
ATOM     14  C   UNL     1      14.773  11.020  31.343  0.00  0.00    +0.000 C 
ENDBRANCH  10  13
ENDBRANCH   3   7
BRANCH   1  15
ATOM     15  C   UNL     1      17.015   9.204  40.633  0.00  0.00    +0.000 C 
ATOM     16  O   UNL     1      16.636   9.861  41.632  0.00  0.00    +0.000 OA
BRANCH  15  17
ATOM     17  O   UNL     1      16.931   7.830  40.708  0.00  0.00    +0.000 OA
BRANCH  17  19
ATOM     18  C   UNL     1      18.770   6.367  40.149  0.00  0.00    +0.000 C 
ATOM     19  C   UNL     1      17.916   7.001  41.244  0.00  0.00    +0.000 C 
ENDBRANCH  17  19
ENDBRANCH  15  17
ENDBRANCH   1  15
TORSDOF 5
ENDMDL
MODEL 5
REMARK VINA RESULT:      -5.6      4.476      7.285
REMARK  Name = 
REMARK  5 active torsions:
REMARK  status: ('A' for Active; 'I' for Inactive)
REMARK    1  A    between atoms: C_2  and  O_3
REMARK    2  A    between atoms: O_3  and  C_4
REMARK    3  A    between atoms: C_4  and  C_6
REMARK    4  A    between atoms: C_8  and  C_9
REMARK    5  A    between atoms: C_12  and  O_13
REMARK                            x       y       z     vdW  Elec       q    Type
REMARK                         _______ _______ _______ _____ _____    ______ ____
ROOT
ATOM      1  C   UNL     1      19.941  10.424  38.352  0.00  0.00    +0.000 A 
ATOM      2  C   UNL     1      18.850  11.009  37.822  0.00  0.00    +0.000 A 
ATOM      3  C   UNL     1      17.626  10.556  38.188  0.00  0.00    +0.000 A 
ATOM      4  S   UNL     1      18.019   9.294  39.288  0.00  0.00    +0.000 S 
ATOM      5  C   UNL     1      19.714   9.399  39.236  0.00  0.00    +0.000 A 
ATOM      6  N   UNL     1      20.728   8.634  39.920  0.00  0.00    +0.000 NA
ENDROOT
BRANCH   3   7
ATOM      7  C   UNL     1      16.302  11.017  37.759  0.00  0.00    +0.000 A 
ATOM      8  C   UNL     1      16.113  11.696  36.599  0.00  0.00    +0.000 A 
ATOM      9  C   UNL     1      14.831  12.129  36.210  0.00  0.00    +0.000 A 
ATOM     10  C   UNL     1      13.756  11.854  37.027  0.00  0.00    +0.000 A 
ATOM     11  C   UNL     1      13.940  11.161  38.211  0.00  0.00    +0.000 A 
ATOM     12  C   UNL     1      15.231  10.744  38.571  0.00  0.00    +0.000 A 
BRANCH  10  13
ATOM     13  O   UNL     1      12.470  12.267  36.672  0.00  0.00    +0.000 OA
ATOM     14  C   UNL     1      11.358  11.561  37.182  0.00  0.00    +0.000 C 
ENDBRANCH  10  13
ENDBRANCH   3   7
BRANCH   1  15
ATOM     15  C   UNL     1      21.324  10.870  37.997  0.00  0.00    +0.000 C 
ATOM     16  O   UNL     1      21.740  12.020  38.274  0.00  0.00    +0.000 OA
BRANCH  15  17
ATOM     17  O   UNL     1      22.191  10.020  37.346  0.00  0.00    +0.000 OA
BRANCH  17  19
ATOM     18  C   UNL     1      24.210  10.534  36.123  0.00  0.00    +0.000 C 
ATOM     19  C   UNL     1      22.713  10.240  36.071  0.00  0.00    +0.000 C 
ENDBRANCH  17  19
ENDBRANCH  15  17
ENDBRANCH   1  15
TORSDOF 5
ENDMDL
MODEL 6
REMARK VINA RESULT:      -5.5     17.650     19.814
REMARK  Name = 
REMARK  5 active torsions:
REMARK  status: ('A' for Active; 'I' for Inactive)
REMARK    1  A    between atoms: C_2  and  O_3
REMARK    2  A    between atoms: O_3  and  C_4
REMARK    3  A    between atoms: C_4  and  C_6
REMARK    4  A    between atoms: C_8  and  C_9
REMARK    5  A    between atoms: C_12  and  O_13
REMARK                            x       y       z     vdW  Elec       q    Type
REMARK                         _______ _______ _______ _____ _____    ______ ____
ROOT
ATOM      1  C   UNL     1      27.394  24.050  23.369  0.00  0.00    +0.000 A 
ATOM      2  C   UNL     1      27.518  24.201  24.702  0.00  0.00    +0.000 A 
ATOM      3  C   UNL     1      26.514  23.764  25.501  0.00  0.00    +0.000 A 
ATOM      4  S   UNL     1      25.388  23.137  24.362  0.00  0.00    +0.000 S 
ATOM      5  C   UNL     1      26.240  23.455  22.927  0.00  0.00    +0.000 A 
ATOM      6  N   UNL     1      25.898  23.194  21.549  0.00  0.00    +0.000 NA
ENDROOT
BRANCH   3   7
ATOM      7  C   UNL     1      26.407  23.811  26.963  0.00  0.00    +0.000 A 
ATOM      8  C   UNL     1      27.142  23.003  27.768  0.00  0.00    +0.000 A 
ATOM      9  C   UNL     1      27.021  23.068  29.169  0.00  0.00    +0.000 A 
ATOM     10  C   UNL     1      26.140  23.972  29.723  0.00  0.00    +0.000 A 
ATOM     11  C   UNL     1      25.388  24.801  28.909  0.00  0.00    +0.000 A 
ATOM     12  C   UNL     1      25.531  24.710  27.516  0.00  0.00    +0.000 A 
BRANCH  10  13
ATOM     13  O   UNL     1      25.995  24.064  31.109  0.00  0.00    +0.000 OA
ATOM     14  C   UNL     1      26.436  25.232  31.768  0.00  0.00    +0.000 C 
ENDBRANCH  10  13
ENDBRANCH   3   7
BRANCH   1  15
ATOM     15  C   UNL     1      28.461  24.506  22.425  0.00  0.00    +0.000 C 
ATOM     16  O   UNL     1      29.555  23.903  22.320  0.00  0.00    +0.000 OA
BRANCH  15  17
ATOM     17  O   UNL     1      28.270  25.618  21.632  0.00  0.00    +0.000 OA
BRANCH  17  19
ATOM     18  C   UNL     1      29.686  26.846  20.109  0.00  0.00    +0.000 C 
ATOM     19  C   UNL     1      29.160  26.687  21.533  0.00  0.00    +0.000 C 
ENDBRANCH  17  19
ENDBRANCH  15  17
ENDBRANCH   1  15
TORSDOF 5
ENDMDL
MODEL 7
REMARK VINA RESULT:      -5.5     21.091     23.652
REMARK  Name = 
REMARK  5 active torsions:
REMARK  status: ('A' for Active; 'I' for Inactive)
REMARK    1  A    between atoms: C_2  and  O_3
REMARK    2  A    between atoms: O_3  and  C_4
REMARK    3  A    between atoms: C_4  and  C_6
REMARK    4  A    between atoms: C_8  and  C_9
REMARK    5  A    between atoms: C_12  and  O_13
REMARK                            x       y       z     vdW  Elec       q    Type
REMARK                         _______ _______ _______ _____ _____    ______ ____
ROOT
ATOM      1  C   UNL     1      33.545  -2.224  34.972  0.00  0.00    +0.000 A 
ATOM      2  C   UNL     1      33.551  -2.834  33.772  0.00  0.00    +0.000 A 
ATOM      3  C   UNL     1      34.076  -4.080  33.679  0.00  0.00    +0.000 A 
ATOM      4  S   UNL     1      34.566  -4.391  35.298  0.00  0.00    +0.000 S 
ATOM      5  C   UNL     1      34.082  -2.930  36.018  0.00  0.00    +0.000 A 
ATOM      6  N   UNL     1      34.181  -2.474  37.384  0.00  0.00    +0.000 NA
ENDROOT
BRANCH   3   7
ATOM      7  C   UNL     1      34.199  -4.948  32.503  0.00  0.00    +0.000 A 
ATOM      8  C   UNL     1      33.324  -4.890  31.467  0.00  0.00    +0.000 A 
ATOM      9  C   UNL     1      33.464  -5.734  30.348  0.00  0.00    +0.000 A 
ATOM     10  C   UNL     1      34.511  -6.630  30.314  0.00  0.00    +0.000 A 
ATOM     11  C   UNL     1      35.408  -6.694  31.366  0.00  0.00    +0.000 A 
ATOM     12  C   UNL     1      35.240  -5.840  32.467  0.00  0.00    +0.000 A 
BRANCH  10  13
ATOM     13  O   UNL     1      34.681  -7.482  29.220  0.00  0.00    +0.000 OA
ATOM     14  C   UNL     1      34.394  -6.999  27.925  0.00  0.00    +0.000 C 
ENDBRANCH  10  13
ENDBRANCH   3   7
BRANCH   1  15
ATOM     15  C   UNL     1      32.982  -0.850  35.152  0.00  0.00    +0.000 C 
ATOM     16  O   UNL     1      31.884  -0.653  35.724  0.00  0.00    +0.000 OA
BRANCH  15  17
ATOM     17  O   UNL     1      33.663   0.255  34.688  0.00  0.00    +0.000 OA
BRANCH  17  19
ATOM     18  C   UNL     1      34.308   0.527  32.376  0.00  0.00    +0.000 C 
ATOM     19  C   UNL     1      33.365   0.934  33.506  0.00  0.00    +0.000 C 
ENDBRANCH  17  19
ENDBRANCH  15  17
ENDBRANCH   1  15
TORSDOF 5
ENDMDL
MODEL 8
REMARK VINA RESULT:      -5.4     21.245     22.211
REMARK  Name = 
REMARK  5 active torsions:
REMARK  status: ('A' for Active; 'I' for Inactive)
REMARK    1  A    between atoms: C_2  and  O_3
REMARK    2  A    between atoms: O_3  and  C_4
REMARK    3  A    between atoms: C_4  and  C_6
REMARK    4  A    between atoms: C_8  and  C_9
REMARK    5  A    between atoms: C_12  and  O_13
REMARK                            x       y       z     vdW  Elec       q    Type
REMARK                         _______ _______ _______ _____ _____    ______ ____
ROOT
ATOM      1  C   UNL     1      18.518  -7.636  26.631  0.00  0.00    +0.000 A 
ATOM      2  C   UNL     1      19.557  -7.281  25.852  0.00  0.00    +0.000 A 
ATOM      3  C   UNL     1      20.702  -8.001  25.927  0.00  0.00    +0.000 A 
ATOM      4  S   UNL     1      20.310  -9.187  27.109  0.00  0.00    +0.000 S 
ATOM      5  C   UNL     1      18.713  -8.718  27.452  0.00  0.00    +0.000 A 
ATOM      6  N   UNL     1      17.743  -9.272  28.366  0.00  0.00    +0.000 NA
ENDROOT
BRANCH   3   7
ATOM      7  C   UNL     1      21.959  -7.820  25.194  0.00  0.00    +0.000 A 
ATOM      8  C   UNL     1      22.798  -8.854  24.930  0.00  0.00    +0.000 A 
ATOM      9  C   UNL     1      24.000  -8.654  24.224  0.00  0.00    +0.000 A 
ATOM     10  C   UNL     1      24.320  -7.383  23.796  0.00  0.00    +0.000 A 
ATOM     11  C   UNL     1      23.469  -6.324  24.060  0.00  0.00    +0.000 A 
ATOM     12  C   UNL     1      22.280  -6.557  24.767  0.00  0.00    +0.000 A 
BRANCH  10  13
ATOM     13  O   UNL     1      25.503  -7.148  23.092  0.00  0.00    +0.000 OA
ATOM     14  C   UNL     1      26.482  -8.164  23.038  0.00  0.00    +0.000 C 
ENDBRANCH  10  13
ENDBRANCH   3   7
BRANCH   1  15
ATOM     15  C   UNL     1      17.222  -6.890  26.602  0.00  0.00    +0.000 C 
ATOM     16  O   UNL     1      17.017  -5.888  27.328  0.00  0.00    +0.000 OA
BRANCH  15  17
ATOM     17  O   UNL     1      16.200  -7.288  25.766  0.00  0.00    +0.000 OA
BRANCH  17  19
ATOM     18  C   UNL     1      14.655  -9.140  25.641  0.00  0.00    +0.000 C 
ATOM     19  C   UNL     1      16.030  -8.584  25.280  0.00  0.00    +0.000 C 
ENDBRANCH  17  19
ENDBRANCH  15  17
ENDBRANCH   1  15
TORSDOF 5
ENDMDL
MODEL 9
REMARK VINA RESULT:      -5.4     21.534     22.480
REMARK  Name = 
REMARK  5 active torsions:
REMARK  status: ('A' for Active; 'I' for Inactive)
REMARK    1  A    between atoms: C_2  and  O_3
REMARK    2  A    between atoms: O_3  and  C_4
REMARK    3  A    between atoms: C_4  and  C_6
REMARK    4  A    between atoms: C_8  and  C_9
REMARK    5  A    between atoms: C_12  and  O_13
REMARK                            x       y       z     vdW  Elec       q    Type
REMARK                         _______ _______ _______ _____ _____    ______ ____
ROOT
ATOM      1  C   UNL     1      19.161  -8.442  26.062  0.00  0.00    +0.000 A 
ATOM      2  C   UNL     1      20.177  -7.966  25.317  0.00  0.00    +0.000 A 
ATOM      3  C   UNL     1      21.420  -8.465  25.519  0.00  0.00    +0.000 A 
ATOM      4  S   UNL     1      21.152  -9.616  26.769  0.00  0.00    +0.000 S 
ATOM      5  C   UNL     1      19.479  -9.412  26.978  0.00  0.00    +0.000 A 
ATOM      6  N   UNL     1      18.555 -10.062  27.877  0.00  0.00    +0.000 NA
ENDROOT
BRANCH   3   7
ATOM      7  C   UNL     1      22.677  -8.119  24.847  0.00  0.00    +0.000 A 
ATOM      8  C   UNL     1      23.566  -9.061  24.445  0.00  0.00    +0.000 A 
ATOM      9  C   UNL     1      24.766  -8.702  23.802  0.00  0.00    +0.000 A 
ATOM     10  C   UNL     1      25.033  -7.367  23.581  0.00  0.00    +0.000 A 
ATOM     11  C   UNL     1      24.131  -6.400  23.988  0.00  0.00    +0.000 A 
ATOM     12  C   UNL     1      22.944  -6.791  24.627  0.00  0.00    +0.000 A 
BRANCH  10  13
ATOM     13  O   UNL     1      26.213  -6.975  22.946  0.00  0.00    +0.000 OA
ATOM     14  C   UNL     1      27.168  -7.958  22.605  0.00  0.00    +0.000 C 
ENDBRANCH  10  13
ENDBRANCH   3   7
BRANCH   1  15
ATOM     15  C   UNL     1      17.761  -7.940  25.896  0.00  0.00    +0.000 C 
ATOM     16  O   UNL     1      16.829  -8.690  25.521  0.00  0.00    +0.000 OA
BRANCH  15  17
ATOM     17  O   UNL     1      17.453  -6.622  26.152  0.00  0.00    +0.000 OA
BRANCH  17  19
ATOM     18  C   UNL     1      18.876  -4.735  26.649  0.00  0.00    +0.000 C 
ATOM     19  C   UNL     1      18.000  -5.863  27.186  0.00  0.00    +0.000 C 
ENDBRANCH  17  19
ENDBRANCH  15  17
ENDBRANCH   1  15
TORSDOF 5
ENDMDL
MODEL 10
REMARK VINA RESULT:      -5.4     21.094     22.257
REMARK  Name = 
REMARK  5 active torsions:
REMARK  status: ('A' for Active; 'I' for Inactive)
REMARK    1  A    between atoms: C_2  and  O_3
REMARK    2  A    between atoms: O_3  and  C_4
REMARK    3  A    between atoms: C_4  and  C_6
REMARK    4  A    between atoms: C_8  and  C_9
REMARK    5  A    between atoms: C_12  and  O_13
REMARK                            x       y       z     vdW  Elec       q    Type
REMARK                         _______ _______ _______ _____ _____    ______ ____
ROOT
ATOM      1  C   UNL     1      18.691  -7.801  26.813  0.00  0.00    +0.000 A 
ATOM      2  C   UNL     1      19.861  -8.198  26.278  0.00  0.00    +0.000 A 
ATOM      3  C   UNL     1      20.658  -7.268  25.697  0.00  0.00    +0.000 A 
ATOM      4  S   UNL     1      19.747  -5.825  25.907  0.00  0.00    +0.000 S 
ATOM      5  C   UNL     1      18.400  -6.463  26.722  0.00  0.00    +0.000 A 
ATOM      6  N   UNL     1      17.209  -5.821  27.223  0.00  0.00    +0.000 NA
ENDROOT
BRANCH   3   7
ATOM      7  C   UNL     1      21.963  -7.441  25.051  0.00  0.00    +0.000 A 
ATOM      8  C   UNL     1      22.600  -6.422  24.422  0.00  0.00    +0.000 A 
ATOM      9  C   UNL     1      23.854  -6.614  23.809  0.00  0.00    +0.000 A 
ATOM     10  C   UNL     1      24.436  -7.863  23.856  0.00  0.00    +0.000 A 
ATOM     11  C   UNL     1      23.793  -8.908  24.497  0.00  0.00    +0.000 A 
ATOM     12  C   UNL     1      22.544  -8.683  25.097  0.00  0.00    +0.000 A 
BRANCH  10  13
ATOM     13  O   UNL     1      25.678  -8.090  23.260  0.00  0.00    +0.000 OA
ATOM     14  C   UNL     1      26.454  -9.189  23.691  0.00  0.00    +0.000 C 
ENDBRANCH  10  13
ENDBRANCH   3   7
BRANCH   1  15
ATOM     15  C   UNL     1      17.759  -8.769  27.471  0.00  0.00    +0.000 C 
ATOM     16  O   UNL     1      16.966  -9.480  26.809  0.00  0.00    +0.000 OA
BRANCH  15  17
ATOM     17  O   UNL     1      17.746  -8.910  28.842  0.00  0.00    +0.000 OA
BRANCH  17  19
ATOM     18  C   UNL     1      19.773  -9.848  29.759  0.00  0.00    +0.000 C 
ATOM     19  C   UNL     1      18.271 -10.000  29.535  0.00  0.00    +0.000 C 
ENDBRANCH  17  19
ENDBRANCH  15  17
ENDBRANCH   1  15
TORSDOF 5
ENDMDL
