MODEL 1
REMARK VINA RESULT:      -7.2      0.000      0.000
REMARK  Name = 
REMARK  2 active torsions:
REMARK  status: ('A' for Active; 'I' for Inactive)
REMARK    1  A    between atoms: N_14  and  C_15
REMARK    2  A    between atoms: C_15  and  C_16
REMARK                            x       y       z     vdW  Elec       q    Type
REMARK                         _______ _______ _______ _____ _____    ______ ____
ROOT
ATOM      1  O   UNL     1      22.661  -9.753  26.516  0.00  0.00    +0.000 OA
ATOM      2  C   UNL     1      22.366  -9.601  25.320  0.00  0.00    +0.000 C 
ATOM      3  N   UNL     1      23.207  -9.746  24.244  0.00  0.00    +0.000 NA
ATOM      4  C   UNL     1      22.575  -9.024  23.158  0.00  0.00    +0.000 C 
ATOM      5  C   UNL     1      22.684  -7.509  23.211  0.00  0.00    +0.000 C 
ATOM      6  C   UNL     1      23.495  -7.023  24.337  0.00  0.00    +0.000 C 
ATOM      7  C   UNL     1      24.799  -6.499  23.728  0.00  0.00    +0.000 C 
ATOM      8  C   UNL     1      25.760  -7.624  23.484  0.00  0.00    +0.000 C 
ATOM      9  C   UNL     1      25.089  -8.935  23.133  0.00  0.00    +0.000 C 
ATOM     10  C   UNL     1      24.529  -8.985  21.745  0.00  0.00    +0.000 C 
ATOM     11  C   UNL     1      23.084  -9.538  21.849  0.00  0.00    +0.000 C 
ATOM     12  C   UNL     1      21.120  -9.249  23.449  0.00  0.00    +0.000 C 
ATOM     13  O   UNL     1      20.243  -9.391  22.620  0.00  0.00    +0.000 OA
ATOM     14  N   UNL     1      20.978  -9.235  24.826  0.00  0.00    +0.000 N 
ENDROOT
BRANCH  14  15
ATOM     15  C   UNL     1      20.159  -8.861  25.888  0.00  0.00    +0.000 C 
BRANCH  15  16
ATOM     16  C   UNL     1      19.639  -7.541  26.121  0.00  0.00    +0.000 A 
ATOM     17  C   UNL     1      20.082  -6.385  25.733  0.00  0.00    +0.000 A 
ATOM     18  C   UNL     1      19.537  -5.129  26.057  0.00  0.00    +0.000 A 
ATOM     19  C   UNL     1      18.422  -5.213  26.891  0.00  0.00    +0.000 A 
ATOM     20  C   UNL     1      17.929  -6.412  27.324  0.00  0.00    +0.000 A 
ATOM     21  C   UNL     1      18.477  -7.589  26.964  0.00  0.00    +0.000 A 
ATOM     22  F   UNL     1      18.069  -8.775  27.386  0.00  0.00    +0.000 F 
ENDBRANCH  15  16
ENDBRANCH  14  15
TORSDOF 2
ENDMDL
MODEL 2
REMARK VINA RESULT:      -6.9     32.670     34.372
REMARK  Name = 
REMARK  2 active torsions:
REMARK  status: ('A' for Active; 'I' for Inactive)
REMARK    1  A    between atoms: N_14  and  C_15
REMARK    2  A    between atoms: C_15  and  C_16
REMARK                            x       y       z     vdW  Elec       q    Type
REMARK                         _______ _______ _______ _____ _____    ______ ____
ROOT
ATOM      1  O   UNL     1      26.844  23.738  21.485  0.00  0.00    +0.000 OA
ATOM      2  C   UNL     1      27.712  23.649  22.367  0.00  0.00    +0.000 C 
ATOM      3  N   UNL     1      27.598  22.989  23.566  0.00  0.00    +0.000 NA
ATOM      4  C   UNL     1      28.625  23.553  24.418  0.00  0.00    +0.000 C 
ATOM      5  C   UNL     1      28.334  24.930  24.994  0.00  0.00    +0.000 C 
ATOM      6  C   UNL     1      26.999  25.436  24.645  0.00  0.00    +0.000 C 
ATOM      7  C   UNL     1      26.172  25.380  25.932  0.00  0.00    +0.000 C 
ATOM      8  C   UNL     1      25.623  24.002  26.151  0.00  0.00    +0.000 C 
ATOM      9  C   UNL     1      26.521  22.899  25.632  0.00  0.00    +0.000 C 
ATOM     10  C   UNL     1      27.736  22.651  26.471  0.00  0.00    +0.000 C 
ATOM     11  C   UNL     1      28.954  22.589  25.513  0.00  0.00    +0.000 C 
ATOM     12  C   UNL     1      29.714  23.845  23.429  0.00  0.00    +0.000 C 
ATOM     13  O   UNL     1      30.909  23.752  23.638  0.00  0.00    +0.000 OA
ATOM     14  N   UNL     1      29.098  24.260  22.261  0.00  0.00    +0.000 N 
ENDROOT
BRANCH  14  15
ATOM     15  C   UNL     1      29.175  25.120  21.169  0.00  0.00    +0.000 C 
BRANCH  15  16
ATOM     16  C   UNL     1      29.296  26.552  21.237  0.00  0.00    +0.000 A 
ATOM     17  C   UNL     1      29.072  27.366  22.221  0.00  0.00    +0.000 A 
ATOM     18  C   UNL     1      29.161  28.769  22.182  0.00  0.00    +0.000 A 
ATOM     19  C   UNL     1      29.519  29.262  20.927  0.00  0.00    +0.000 A 
ATOM     20  C   UNL     1      29.760  28.435  19.866  0.00  0.00    +0.000 A 
ATOM     21  C   UNL     1      29.681  27.095  19.964  0.00  0.00    +0.000 A 
ATOM     22  F   UNL     1      29.861  26.249  18.961  0.00  0.00    +0.000 F 
ENDBRANCH  15  16
ENDBRANCH  14  15
TORSDOF 2
ENDMDL
MODEL 3
REMARK VINA RESULT:      -6.7     21.304     22.937
REMARK  Name = 
REMARK  2 active torsions:
REMARK  status: ('A' for Active; 'I' for Inactive)
REMARK    1  A    between atoms: N_14  and  C_15
REMARK    2  A    between atoms: C_15  and  C_16
REMARK                            x       y       z     vdW  Elec       q    Type
REMARK                         _______ _______ _______ _____ _____    ______ ____
ROOT
ATOM      1  O   UNL     1      18.250   8.779  35.201  0.00  0.00    +0.000 OA
ATOM      2  C   UNL     1      18.301   9.816  35.882  0.00  0.00    +0.000 C 
ATOM      3  N   UNL     1      19.269  10.147  36.799  0.00  0.00    +0.000 NA
ATOM      4  C   UNL     1      18.670  11.157  37.647  0.00  0.00    +0.000 C 
ATOM      5  C   UNL     1      17.672  10.657  38.680  0.00  0.00    +0.000 C 
ATOM      6  C   UNL     1      17.538   9.193  38.696  0.00  0.00    +0.000 C 
ATOM      7  C   UNL     1      18.207   8.718  39.989  0.00  0.00    +0.000 C 
ATOM      8  C   UNL     1      19.691   8.607  39.808  0.00  0.00    +0.000 C 
ATOM      9  C   UNL     1      20.265   9.620  38.840  0.00  0.00    +0.000 C 
ATOM     10  C   UNL     1      20.339  11.014  39.383  0.00  0.00    +0.000 C 
ATOM     11  C   UNL     1      19.744  11.960  38.308  0.00  0.00    +0.000 C 
ATOM     12  C   UNL     1      17.786  11.884  36.677  0.00  0.00    +0.000 C 
ATOM     13  O   UNL     1      17.551  13.078  36.685  0.00  0.00    +0.000 OA
ATOM     14  N   UNL     1      17.280  10.936  35.805  0.00  0.00    +0.000 N 
ENDROOT
BRANCH  14  15
ATOM     15  C   UNL     1      16.171  10.543  35.060  0.00  0.00    +0.000 C 
BRANCH  15  16
ATOM     16  C   UNL     1      15.857  10.983  33.727  0.00  0.00    +0.000 A 
ATOM     17  C   UNL     1      16.254  10.528  32.578  0.00  0.00    +0.000 A 
ATOM     18  C   UNL     1      15.939  11.060  31.315  0.00  0.00    +0.000 A 
ATOM     19  C   UNL     1      15.129  12.193  31.382  0.00  0.00    +0.000 A 
ATOM     20  C   UNL     1      14.694  12.704  32.573  0.00  0.00    +0.000 A 
ATOM     21  C   UNL     1      15.007  12.141  33.756  0.00  0.00    +0.000 A 
ATOM     22  F   UNL     1      14.652  12.616  34.940  0.00  0.00    +0.000 F 
ENDBRANCH  15  16
ENDBRANCH  14  15
TORSDOF 2
ENDMDL
MODEL 4
REMARK VINA RESULT:      -6.6     31.463     32.757
REMARK  Name = 
REMARK  2 active torsions:
REMARK  status: ('A' for Active; 'I' for Inactive)
REMARK    1  A    between atoms: N_14  and  C_15
REMARK    2  A    between atoms: C_15  and  C_16
REMARK                            x       y       z     vdW  Elec       q    Type
REMARK                         _______ _______ _______ _____ _____    ______ ____
ROOT
ATOM      1  O   UNL     1      29.750  22.652  25.755  0.00  0.00    +0.000 OA
ATOM      2  C   UNL     1      28.711  22.903  25.124  0.00  0.00    +0.000 C 
ATOM      3  N   UNL     1      28.626  23.299  23.812  0.00  0.00    +0.000 NA
ATOM      4  C   UNL     1      27.322  23.916  23.678  0.00  0.00    +0.000 C 
ATOM      5  C   UNL     1      27.184  25.318  24.250  0.00  0.00    +0.000 C 
ATOM      6  C   UNL     1      28.444  25.853  24.786  0.00  0.00    +0.000 C 
ATOM      7  C   UNL     1      28.895  26.942  23.808  0.00  0.00    +0.000 C 
ATOM      8  C   UNL     1      29.616  26.340  22.639  0.00  0.00    +0.000 C 
ATOM      9  C   UNL     1      29.113  24.965  22.255  0.00  0.00    +0.000 C 
ATOM     10  C   UNL     1      27.787  24.968  21.558  0.00  0.00    +0.000 C 
ATOM     11  C   UNL     1      26.902  23.896  22.243  0.00  0.00    +0.000 C 
ATOM     12  C   UNL     1      26.499  23.101  24.631  0.00  0.00    +0.000 C 
ATOM     13  O   UNL     1      25.332  22.794  24.482  0.00  0.00    +0.000 OA
ATOM     14  N   UNL     1      27.314  22.797  25.708  0.00  0.00    +0.000 N 
ENDROOT
BRANCH  14  15
ATOM     15  C   UNL     1      27.369  22.619  27.088  0.00  0.00    +0.000 C 
BRANCH  15  16
ATOM     16  C   UNL     1      26.693  23.430  28.065  0.00  0.00    +0.000 A 
ATOM     17  C   UNL     1      26.032  24.537  27.923  0.00  0.00    +0.000 A 
ATOM     18  C   UNL     1      25.447  25.299  28.950  0.00  0.00    +0.000 A 
ATOM     19  C   UNL     1      25.648  24.757  30.219  0.00  0.00    +0.000 A 
ATOM     20  C   UNL     1      26.343  23.595  30.409  0.00  0.00    +0.000 A 
ATOM     21  C   UNL     1      26.864  22.891  29.386  0.00  0.00    +0.000 A 
ATOM     22  F   UNL     1      27.581  21.785  29.513  0.00  0.00    +0.000 F 
ENDBRANCH  15  16
ENDBRANCH  14  15
TORSDOF 2
ENDMDL
MODEL 5
REMARK VINA RESULT:      -6.5     31.884     33.173
REMARK  Name = 
REMARK  2 active torsions:
REMARK  status: ('A' for Active; 'I' for Inactive)
REMARK    1  A    between atoms: N_14  and  C_15
REMARK    2  A    between atoms: C_15  and  C_16
REMARK                            x       y       z     vdW  Elec       q    Type
REMARK                         _______ _______ _______ _____ _____    ______ ____
ROOT
ATOM      1  O   UNL     1      25.764  22.693  25.039  0.00  0.00    +0.000 OA
ATOM      2  C   UNL     1      26.472  23.711  25.085  0.00  0.00    +0.000 C 
ATOM      3  N   UNL     1      27.586  23.970  24.326  0.00  0.00    +0.000 NA
ATOM      4  C   UNL     1      28.315  24.996  25.043  0.00  0.00    +0.000 C 
ATOM      5  C   UNL     1      29.090  24.533  26.267  0.00  0.00    +0.000 C 
ATOM      6  C   UNL     1      29.032  23.079  26.475  0.00  0.00    +0.000 C 
ATOM      7  C   UNL     1      30.424  22.543  26.130  0.00  0.00    +0.000 C 
ATOM      8  C   UNL     1      30.567  22.353  24.649  0.00  0.00    +0.000 C 
ATOM      9  C   UNL     1      29.778  23.350  23.827  0.00  0.00    +0.000 C 
ATOM     10  C   UNL     1      30.366  24.727  23.803  0.00  0.00    +0.000 C 
ATOM     11  C   UNL     1      29.217  25.725  24.100  0.00  0.00    +0.000 C 
ATOM     12  C   UNL     1      27.199  25.790  25.656  0.00  0.00    +0.000 C 
ATOM     13  O   UNL     1      27.192  26.994  25.825  0.00  0.00    +0.000 OA
ATOM     14  N   UNL     1      26.209  24.889  26.006  0.00  0.00    +0.000 N 
ENDROOT
BRANCH  14  15
ATOM     15  C   UNL     1      25.229  24.572  26.944  0.00  0.00    +0.000 C 
BRANCH  15  16
ATOM     16  C   UNL     1      25.269  24.904  28.343  0.00  0.00    +0.000 A 
ATOM     17  C   UNL     1      24.807  25.940  28.972  0.00  0.00    +0.000 A 
ATOM     18  C   UNL     1      24.941  26.213  30.345  0.00  0.00    +0.000 A 
ATOM     19  C   UNL     1      25.664  25.236  31.031  0.00  0.00    +0.000 A 
ATOM     20  C   UNL     1      26.170  24.133  30.401  0.00  0.00    +0.000 A 
ATOM     21  C   UNL     1      25.992  23.909  29.085  0.00  0.00    +0.000 A 
ATOM     22  F   UNL     1      26.494  22.884  28.416  0.00  0.00    +0.000 F 
ENDBRANCH  15  16
ENDBRANCH  14  15
TORSDOF 2
ENDMDL
MODEL 6
REMARK VINA RESULT:      -6.3     31.745     33.474
REMARK  Name = 
REMARK  2 active torsions:
REMARK  status: ('A' for Active; 'I' for Inactive)
REMARK    1  A    between atoms: N_14  and  C_15
REMARK    2  A    between atoms: C_15  and  C_16
REMARK                            x       y       z     vdW  Elec       q    Type
REMARK                         _______ _______ _______ _____ _____    ______ ____
ROOT
ATOM      1  O   UNL     1      25.378  23.164  24.157  0.00  0.00    +0.000 OA
ATOM      2  C   UNL     1      26.553  23.036  24.538  0.00  0.00    +0.000 C 
ATOM      3  N   UNL     1      26.971  22.620  25.778  0.00  0.00    +0.000 NA
ATOM      4  C   UNL     1      28.339  23.082  25.901  0.00  0.00    +0.000 C 
ATOM      5  C   UNL     1      28.521  24.564  26.188  0.00  0.00    +0.000 C 
ATOM      6  C   UNL     1      27.250  25.280  26.374  0.00  0.00    +0.000 C 
ATOM      7  C   UNL     1      27.162  25.611  27.866  0.00  0.00    +0.000 C 
ATOM      8  C   UNL     1      26.646  24.436  28.641  0.00  0.00    +0.000 C 
ATOM      9  C   UNL     1      27.047  23.098  28.059  0.00  0.00    +0.000 C 
ATOM     10  C   UNL     1      28.482  22.736  28.283  0.00  0.00    +0.000 C 
ATOM     11  C   UNL     1      29.057  22.261  26.924  0.00  0.00    +0.000 C 
ATOM     12  C   UNL     1      28.826  22.970  24.486  0.00  0.00    +0.000 C 
ATOM     13  O   UNL     1      29.951  22.659  24.143  0.00  0.00    +0.000 OA
ATOM     14  N   UNL     1      27.764  23.312  23.666  0.00  0.00    +0.000 N 
ENDROOT
BRANCH  14  15
ATOM     15  C   UNL     1      27.388  23.947  22.486  0.00  0.00    +0.000 C 
BRANCH  15  16
ATOM     16  C   UNL     1      28.023  25.106  21.918  0.00  0.00    +0.000 A 
ATOM     17  C   UNL     1      29.011  25.196  21.083  0.00  0.00    +0.000 A 
ATOM     18  C   UNL     1      29.610  26.382  20.621  0.00  0.00    +0.000 A 
ATOM     19  C   UNL     1      29.041  27.533  21.165  0.00  0.00    +0.000 A 
ATOM     20  C   UNL     1      28.001  27.478  22.051  0.00  0.00    +0.000 A 
ATOM     21  C   UNL     1      27.449  26.314  22.444  0.00  0.00    +0.000 A 
ATOM     22  F   UNL     1      26.472  26.199  23.329  0.00  0.00    +0.000 F 
ENDBRANCH  15  16
ENDBRANCH  14  15
TORSDOF 2
ENDMDL
MODEL 7
REMARK VINA RESULT:      -6.3     33.188     34.686
REMARK  Name = 
REMARK  2 active torsions:
REMARK  status: ('A' for Active; 'I' for Inactive)
REMARK    1  A    between atoms: N_14  and  C_15
REMARK    2  A    between atoms: C_15  and  C_16
REMARK                            x       y       z     vdW  Elec       q    Type
REMARK                         _______ _______ _______ _____ _____    ______ ____
ROOT
ATOM      1  O   UNL     1      34.466  23.314  10.610  0.00  0.00    +0.000 OA
ATOM      2  C   UNL     1      33.860  22.291  10.252  0.00  0.00    +0.000 C 
ATOM      3  N   UNL     1      32.530  22.201   9.919  0.00  0.00    +0.000 NA
ATOM      4  C   UNL     1      32.193  20.798  10.044  0.00  0.00    +0.000 C 
ATOM      5  C   UNL     1      32.013  20.277  11.461  0.00  0.00    +0.000 C 
ATOM      6  C   UNL     1      32.137  21.325  12.485  0.00  0.00    +0.000 C 
ATOM      7  C   UNL     1      30.725  21.558  13.030  0.00  0.00    +0.000 C 
ATOM      8  C   UNL     1      29.958  22.485  12.135  0.00  0.00    +0.000 C 
ATOM      9  C   UNL     1      30.329  22.366  10.672  0.00  0.00    +0.000 C 
ATOM     10  C   UNL     1      29.805  21.133  10.003  0.00  0.00    +0.000 C 
ATOM     11  C   UNL     1      30.982  20.496   9.220  0.00  0.00    +0.000 C 
ATOM     12  C   UNL     1      33.474  20.139   9.623  0.00  0.00    +0.000 C 
ATOM     13  O   UNL     1      33.568  19.098   9.003  0.00  0.00    +0.000 OA
ATOM     14  N   UNL     1      34.508  20.927  10.099  0.00  0.00    +0.000 N 
ENDROOT
BRANCH  14  15
ATOM     15  C   UNL     1      35.791  20.928  10.640  0.00  0.00    +0.000 C 
BRANCH  15  16
ATOM     16  C   UNL     1      36.177  20.323  11.886  0.00  0.00    +0.000 A 
ATOM     17  C   UNL     1      35.671  19.309  12.518  0.00  0.00    +0.000 A 
ATOM     18  C   UNL     1      36.078  18.816  13.770  0.00  0.00    +0.000 A 
ATOM     19  C   UNL     1      37.124  19.547  14.334  0.00  0.00    +0.000 A 
ATOM     20  C   UNL     1      37.680  20.624  13.701  0.00  0.00    +0.000 A 
ATOM     21  C   UNL     1      37.266  21.040  12.489  0.00  0.00    +0.000 A 
ATOM     22  F   UNL     1      37.737  22.099  11.849  0.00  0.00    +0.000 F 
ENDBRANCH  15  16
ENDBRANCH  14  15
TORSDOF 2
ENDMDL
MODEL 8
REMARK VINA RESULT:      -6.2     21.312     23.571
REMARK  Name = 
REMARK  2 active torsions:
REMARK  status: ('A' for Active; 'I' for Inactive)
REMARK    1  A    between atoms: N_14  and  C_15
REMARK    2  A    between atoms: C_15  and  C_16
REMARK                            x       y       z     vdW  Elec       q    Type
REMARK                         _______ _______ _______ _____ _____    ______ ____
ROOT
ATOM      1  O   UNL     1      18.459  10.033  40.081  0.00  0.00    +0.000 OA
ATOM      2  C   UNL     1      19.459  10.157  39.356  0.00  0.00    +0.000 C 
ATOM      3  N   UNL     1      20.697  10.610  39.739  0.00  0.00    +0.000 NA
ATOM      4  C   UNL     1      21.353  11.025  38.516  0.00  0.00    +0.000 C 
ATOM      5  C   UNL     1      20.899  12.353  37.931  0.00  0.00    +0.000 C 
ATOM      6  C   UNL     1      19.904  13.045  38.764  0.00  0.00    +0.000 C 
ATOM      7  C   UNL     1      20.627  14.245  39.382  0.00  0.00    +0.000 C 
ATOM      8  C   UNL     1      21.398  13.831  40.599  0.00  0.00    +0.000 C 
ATOM      9  C   UNL     1      21.940  12.419  40.526  0.00  0.00    +0.000 C 
ATOM     10  C   UNL     1      23.114  12.258  39.610  0.00  0.00    +0.000 C 
ATOM     11  C   UNL     1      22.835  11.023  38.715  0.00  0.00    +0.000 C 
ATOM     12  C   UNL     1      20.806  10.038  37.527  0.00  0.00    +0.000 C 
ATOM     13  O   UNL     1      21.412   9.564  36.586  0.00  0.00    +0.000 OA
ATOM     14  N   UNL     1      19.489   9.802  37.881  0.00  0.00    +0.000 N 
ENDROOT
BRANCH  14  15
ATOM     15  C   UNL     1      18.203   9.555  37.406  0.00  0.00    +0.000 C 
BRANCH  15  16
ATOM     16  C   UNL     1      17.526  10.311  36.387  0.00  0.00    +0.000 A 
ATOM     17  C   UNL     1      16.817  11.393  36.478  0.00  0.00    +0.000 A 
ATOM     18  C   UNL     1      16.138  12.038  35.429  0.00  0.00    +0.000 A 
ATOM     19  C   UNL     1      16.275  11.387  34.203  0.00  0.00    +0.000 A 
ATOM     20  C   UNL     1      17.011  10.243  34.069  0.00  0.00    +0.000 A 
ATOM     21  C   UNL     1      17.661   9.678  35.104  0.00  0.00    +0.000 A 
ATOM     22  F   UNL     1      18.351   8.550  35.042  0.00  0.00    +0.000 F 
ENDBRANCH  15  16
ENDBRANCH  14  15
TORSDOF 2
ENDMDL
MODEL 9
REMARK VINA RESULT:      -6.2     13.020     14.795
REMARK  Name = 
REMARK  2 active torsions:
REMARK  status: ('A' for Active; 'I' for Inactive)
REMARK    1  A    between atoms: N_14  and  C_15
REMARK    2  A    between atoms: C_15  and  C_16
REMARK                            x       y       z     vdW  Elec       q    Type
REMARK                         _______ _______ _______ _____ _____    ______ ____
ROOT
ATOM      1  O   UNL     1      35.844  -5.991  33.343  0.00  0.00    +0.000 OA
ATOM      2  C   UNL     1      34.637  -6.138  33.092  0.00  0.00    +0.000 C 
ATOM      3  N   UNL     1      34.082  -7.074  32.254  0.00  0.00    +0.000 NA
ATOM      4  C   UNL     1      32.769  -6.563  31.916  0.00  0.00    +0.000 C 
ATOM      5  C   UNL     1      32.733  -5.434  30.899  0.00  0.00    +0.000 C 
ATOM      6  C   UNL     1      34.057  -5.095  30.359  0.00  0.00    +0.000 C 
ATOM      7  C   UNL     1      34.069  -5.597  28.912  0.00  0.00    +0.000 C 
ATOM      8  C   UNL     1      34.392  -7.060  28.861  0.00  0.00    +0.000 C 
ATOM      9  C   UNL     1      33.889  -7.838  30.059  0.00  0.00    +0.000 C 
ATOM     10  C   UNL     1      32.409  -8.067  30.065  0.00  0.00    +0.000 C 
ATOM     11  C   UNL     1      31.889  -7.690  31.477  0.00  0.00    +0.000 C 
ATOM     12  C   UNL     1      32.381  -5.862  33.185  0.00  0.00    +0.000 C 
ATOM     13  O   UNL     1      31.257  -5.797  33.646  0.00  0.00    +0.000 OA
ATOM     14  N   UNL     1      33.533  -5.292  33.699  0.00  0.00    +0.000 N 
ENDROOT
BRANCH  14  15
ATOM     15  C   UNL     1      34.065  -4.196  34.373  0.00  0.00    +0.000 C 
BRANCH  15  16
ATOM     16  C   UNL     1      33.560  -2.850  34.314  0.00  0.00    +0.000 A 
ATOM     17  C   UNL     1      33.920  -1.852  33.568  0.00  0.00    +0.000 A 
ATOM     18  C   UNL     1      33.407  -0.544  33.617  0.00  0.00    +0.000 A 
ATOM     19  C   UNL     1      32.428  -0.374  34.596  0.00  0.00    +0.000 A 
ATOM     20  C   UNL     1      32.026  -1.401  35.405  0.00  0.00    +0.000 A 
ATOM     21  C   UNL     1      32.536  -2.643  35.300  0.00  0.00    +0.000 A 
ATOM     22  F   UNL     1      32.217  -3.662  36.081  0.00  0.00    +0.000 F 
ENDBRANCH  15  16
ENDBRANCH  14  15
TORSDOF 2
ENDMDL
MODEL 10
REMARK VINA RESULT:      -6.1     32.431     33.995
REMARK  Name = 
REMARK  2 active torsions:
REMARK  status: ('A' for Active; 'I' for Inactive)
REMARK    1  A    between atoms: N_14  and  C_15
REMARK    2  A    between atoms: C_15  and  C_16
REMARK                            x       y       z     vdW  Elec       q    Type
REMARK                         _______ _______ _______ _____ _____    ______ ____
ROOT
ATOM      1  O   UNL     1      28.478  26.754  25.245  0.00  0.00    +0.000 OA
ATOM      2  C   UNL     1      28.154  25.557  25.279  0.00  0.00    +0.000 C 
ATOM      3  N   UNL     1      28.596  24.613  26.174  0.00  0.00    +0.000 NA
ATOM      4  C   UNL     1      28.342  23.333  25.544  0.00  0.00    +0.000 C 
ATOM      5  C   UNL     1      29.303  22.930  24.437  0.00  0.00    +0.000 C 
ATOM      6  C   UNL     1      30.397  23.891  24.240  0.00  0.00    +0.000 C 
ATOM      7  C   UNL     1      31.663  23.210  24.769  0.00  0.00    +0.000 C 
ATOM      8  C   UNL     1      31.763  23.360  26.258  0.00  0.00    +0.000 C 
ATOM      9  C   UNL     1      30.422  23.393  26.959  0.00  0.00    +0.000 C 
ATOM     10  C   UNL     1      29.740  22.062  27.043  0.00  0.00    +0.000 C 
ATOM     11  C   UNL     1      28.272  22.265  26.589  0.00  0.00    +0.000 C 
ATOM     12  C   UNL     1      27.079  23.613  24.784  0.00  0.00    +0.000 C 
ATOM     13  O   UNL     1      26.170  22.828  24.601  0.00  0.00    +0.000 OA
ATOM     14  N   UNL     1      27.170  24.914  24.318  0.00  0.00    +0.000 N 
ENDROOT
BRANCH  14  15
ATOM     15  C   UNL     1      26.875  25.776  23.265  0.00  0.00    +0.000 C 
BRANCH  15  16
ATOM     16  C   UNL     1      27.758  26.107  22.179  0.00  0.00    +0.000 A 
ATOM     17  C   UNL     1      28.573  25.358  21.503  0.00  0.00    +0.000 A 
ATOM     18  C   UNL     1      29.448  25.779  20.487  0.00  0.00    +0.000 A 
ATOM     19  C   UNL     1      29.388  27.152  20.245  0.00  0.00    +0.000 A 
ATOM     20  C   UNL     1      28.545  27.974  20.939  0.00  0.00    +0.000 A 
ATOM     21  C   UNL     1      27.709  27.513  21.889  0.00  0.00    +0.000 A 
ATOM     22  F   UNL     1      26.904  28.267  22.621  0.00  0.00    +0.000 F 
ENDBRANCH  15  16
ENDBRANCH  14  15
TORSDOF 2
ENDMDL
