MODEL 1
REMARK VINA RESULT:      -7.7      0.000      0.000
REMARK  Name = 
REMARK  7 active torsions:
REMARK  status: ('A' for Active; 'I' for Inactive)
REMARK    1  A    between atoms: C_2  and  O_3
REMARK    2  A    between atoms: O_3  and  C_4
REMARK    3  A    between atoms: C_7  and  N_8
REMARK    4  A    between atoms: C_9  and  C_11
REMARK    5  A    between atoms: C_12  and  N_13
REMARK    6  A    between atoms: C_14  and  C_16
REMARK    7  A    between atoms: C_16  and  C_17
REMARK                            x       y       z     vdW  Elec       q    Type
REMARK                         _______ _______ _______ _____ _____    ______ ____
ROOT
ATOM      1  C   UNL     1      36.309   1.922  14.667  0.00  0.00    +0.000 A 
ATOM      2  C   UNL     1      35.342   1.677  15.609  0.00  0.00    +0.000 A 
ATOM      3  S   UNL     1      34.420   3.106  15.603  0.00  0.00    +0.000 S 
ATOM      4  C   UNL     1      35.267   3.979  14.422  0.00  0.00    +0.000 A 
ATOM      5  C   UNL     1      36.268   3.117  14.054  0.00  0.00    +0.000 A 
ATOM      6  C   UNL     1      37.230   3.626  12.979  0.00  0.00    +0.000 C 
ATOM      7  C   UNL     1      37.427   5.115  13.183  0.00  0.00    +0.000 C 
ATOM      8  C   UNL     1      36.115   5.766  12.893  0.00  0.00    +0.000 C 
ATOM      9  C   UNL     1      35.065   5.342  13.853  0.00  0.00    +0.000 C 
ENDROOT
BRANCH   1  11
ATOM     10  N   UNL     1      38.601   0.859  15.027  0.00  0.00    +0.000 NA
ATOM     11  C   UNL     1      37.331   0.866  14.385  0.00  0.00    +0.000 C 
ATOM     12  O   UNL     1      37.126  -0.055  13.582  0.00  0.00    +0.000 OA
BRANCH  10  16
ATOM     13  C   UNL     1      41.640  -1.919  14.172  0.00  0.00    +0.000 A 
ATOM     14  C   UNL     1      41.655  -0.636  13.667  0.00  0.00    +0.000 A 
ATOM     15  C   UNL     1      40.650   0.244  13.966  0.00  0.00    +0.000 A 
ATOM     16  C   UNL     1      39.587  -0.124  14.781  0.00  0.00    +0.000 A 
ATOM     17  C   UNL     1      39.558  -1.392  15.289  0.00  0.00    +0.000 A 
ATOM     18  C   UNL     1      40.576  -2.269  14.982  0.00  0.00    +0.000 A 
BRANCH  13  19
ATOM     19  O   UNL     1      42.664  -2.805  13.866  0.00  0.00    +0.000 OA
BRANCH  19  21
ATOM     20  C   UNL     1      44.325  -3.671  12.323  0.00  0.00    +0.000 C 
ATOM     21  C   UNL     1      42.906  -3.148  12.525  0.00  0.00    +0.000 C 
ENDBRANCH  19  21
ENDBRANCH  13  19
ENDBRANCH  10  16
ENDBRANCH   1  11
BRANCH   2  22
ATOM     22  N   UNL     1      35.146   0.493  16.414  0.00  0.00    +0.000 NA
ATOM     23  C   UNL     1      35.803   0.362  17.664  0.00  0.00    +0.000 C 
ATOM     24  O   UNL     1      36.564   1.261  18.097  0.00  0.00    +0.000 OA
BRANCH  23  25
ATOM     25  C   UNL     1      35.615  -0.846  18.506  0.00  0.00    +0.000 C 
BRANCH  25  26
ATOM     26  C   UNL     1      36.606  -1.890  18.215  0.00  0.00    +0.000 A 
ATOM     27  C   UNL     1      37.802  -2.040  18.881  0.00  0.00    +0.000 A 
ATOM     28  C   UNL     1      38.685  -3.047  18.552  0.00  0.00    +0.000 A 
ATOM     29  C   UNL     1      38.395  -3.937  17.543  0.00  0.00    +0.000 A 
ATOM     30  C   UNL     1      37.203  -3.797  16.872  0.00  0.00    +0.000 A 
ATOM     31  C   UNL     1      36.332  -2.790  17.208  0.00  0.00    +0.000 A 
ENDBRANCH  25  26
ENDBRANCH  23  25
ENDBRANCH   2  22
TORSDOF 7
ENDMDL
MODEL 2
REMARK VINA RESULT:      -7.0      2.348      6.256
REMARK  Name = 
REMARK  7 active torsions:
REMARK  status: ('A' for Active; 'I' for Inactive)
REMARK    1  A    between atoms: C_2  and  O_3
REMARK    2  A    between atoms: O_3  and  C_4
REMARK    3  A    between atoms: C_7  and  N_8
REMARK    4  A    between atoms: C_9  and  C_11
REMARK    5  A    between atoms: C_12  and  N_13
REMARK    6  A    between atoms: C_14  and  C_16
REMARK    7  A    between atoms: C_16  and  C_17
REMARK                            x       y       z     vdW  Elec       q    Type
REMARK                         _______ _______ _______ _____ _____    ______ ____
ROOT
ATOM      1  C   UNL     1      37.109  -1.267  16.814  0.00  0.00    +0.000 A 
ATOM      2  C   UNL     1      36.116  -0.431  17.257  0.00  0.00    +0.000 A 
ATOM      3  S   UNL     1      36.066  -0.733  18.930  0.00  0.00    +0.000 S 
ATOM      4  C   UNL     1      37.291  -1.901  19.038  0.00  0.00    +0.000 A 
ATOM      5  C   UNL     1      37.716  -2.028  17.740  0.00  0.00    +0.000 A 
ATOM      6  C   UNL     1      38.842  -3.036  17.501  0.00  0.00    +0.000 C 
ATOM      7  C   UNL     1      38.645  -4.205  18.446  0.00  0.00    +0.000 C 
ATOM      8  C   UNL     1      38.860  -3.680  19.828  0.00  0.00    +0.000 C 
ATOM      9  C   UNL     1      37.844  -2.662  20.195  0.00  0.00    +0.000 C 
ENDROOT
BRANCH   1  11
ATOM     10  N   UNL     1      38.714  -0.839  14.878  0.00  0.00    +0.000 NA
ATOM     11  C   UNL     1      37.451  -1.282  15.358  0.00  0.00    +0.000 C 
ATOM     12  O   UNL     1      36.654  -1.680  14.496  0.00  0.00    +0.000 OA
BRANCH  10  16
ATOM     13  C   UNL     1      39.832  -1.048  10.829  0.00  0.00    +0.000 A 
ATOM     14  C   UNL     1      40.027  -2.099  11.699  0.00  0.00    +0.000 A 
ATOM     15  C   UNL     1      39.651  -1.999  13.012  0.00  0.00    +0.000 A 
ATOM     16  C   UNL     1      39.065  -0.841  13.508  0.00  0.00    +0.000 A 
ATOM     17  C   UNL     1      38.866   0.210  12.657  0.00  0.00    +0.000 A 
ATOM     18  C   UNL     1      39.248   0.096  11.338  0.00  0.00    +0.000 A 
BRANCH  13  19
ATOM     19  O   UNL     1      40.216  -1.159   9.500  0.00  0.00    +0.000 OA
BRANCH  19  21
ATOM     20  C   UNL     1      40.732  -2.706   7.702  0.00  0.00    +0.000 C 
ATOM     21  C   UNL     1      41.062  -2.210   9.107  0.00  0.00    +0.000 C 
ENDBRANCH  19  21
ENDBRANCH  13  19
ENDBRANCH  10  16
ENDBRANCH   1  11
BRANCH   2  22
ATOM     22  N   UNL     1      35.304   0.488  16.493  0.00  0.00    +0.000 NA
ATOM     23  C   UNL     1      35.585   1.878  16.513  0.00  0.00    +0.000 C 
ATOM     24  O   UNL     1      36.537   2.340  17.189  0.00  0.00    +0.000 OA
BRANCH  23  25
ATOM     25  C   UNL     1      34.762   2.838  15.736  0.00  0.00    +0.000 C 
BRANCH  25  26
ATOM     26  C   UNL     1      35.502   3.427  14.611  0.00  0.00    +0.000 A 
ATOM     27  C   UNL     1      36.469   2.771  13.883  0.00  0.00    +0.000 A 
ATOM     28  C   UNL     1      37.123   3.389  12.838  0.00  0.00    +0.000 A 
ATOM     29  C   UNL     1      36.826   4.687  12.490  0.00  0.00    +0.000 A 
ATOM     30  C   UNL     1      35.860   5.351  13.210  0.00  0.00    +0.000 A 
ATOM     31  C   UNL     1      35.216   4.725  14.249  0.00  0.00    +0.000 A 
ENDBRANCH  25  26
ENDBRANCH  23  25
ENDBRANCH   2  22
TORSDOF 7
ENDMDL
MODEL 3
REMARK VINA RESULT:      -6.9      3.099      5.751
REMARK  Name = 
REMARK  7 active torsions:
REMARK  status: ('A' for Active; 'I' for Inactive)
REMARK    1  A    between atoms: C_2  and  O_3
REMARK    2  A    between atoms: O_3  and  C_4
REMARK    3  A    between atoms: C_7  and  N_8
REMARK    4  A    between atoms: C_9  and  C_11
REMARK    5  A    between atoms: C_12  and  N_13
REMARK    6  A    between atoms: C_14  and  C_16
REMARK    7  A    between atoms: C_16  and  C_17
REMARK                            x       y       z     vdW  Elec       q    Type
REMARK                         _______ _______ _______ _____ _____    ______ ____
ROOT
ATOM      1  C   UNL     1      36.960   0.320  15.588  0.00  0.00    +0.000 A 
ATOM      2  C   UNL     1      36.639   1.610  15.925  0.00  0.00    +0.000 A 
ATOM      3  S   UNL     1      35.206   1.433  16.825  0.00  0.00    +0.000 S 
ATOM      4  C   UNL     1      35.042  -0.253  16.758  0.00  0.00    +0.000 A 
ATOM      5  C   UNL     1      36.130  -0.644  16.021  0.00  0.00    +0.000 A 
ATOM      6  C   UNL     1      36.267  -2.148  15.775  0.00  0.00    +0.000 C 
ATOM      7  C   UNL     1      34.878  -2.733  15.610  0.00  0.00    +0.000 C 
ATOM      8  C   UNL     1      34.198  -2.600  16.933  0.00  0.00    +0.000 C 
ATOM      9  C   UNL     1      34.016  -1.179  17.319  0.00  0.00    +0.000 C 
ENDROOT
BRANCH   1  11
ATOM     10  N   UNL     1      39.375  -0.469  15.350  0.00  0.00    +0.000 NA
ATOM     11  C   UNL     1      38.191   0.068  14.775  0.00  0.00    +0.000 C 
ATOM     12  O   UNL     1      38.241   0.311  13.561  0.00  0.00    +0.000 OA
BRANCH  10  16
ATOM     13  C   UNL     1      42.834  -1.422  13.157  0.00  0.00    +0.000 A 
ATOM     14  C   UNL     1      41.978  -2.391  13.635  0.00  0.00    +0.000 A 
ATOM     15  C   UNL     1      40.859  -2.047  14.346  0.00  0.00    +0.000 A 
ATOM     16  C   UNL     1      40.553  -0.717  14.608  0.00  0.00    +0.000 A 
ATOM     17  C   UNL     1      41.392   0.254  14.141  0.00  0.00    +0.000 A 
ATOM     18  C   UNL     1      42.514  -0.105  13.426  0.00  0.00    +0.000 A 
BRANCH  13  19
ATOM     19  O   UNL     1      43.965  -1.780  12.436  0.00  0.00    +0.000 OA
BRANCH  19  21
ATOM     20  C   UNL     1      45.278  -3.761  12.934  0.00  0.00    +0.000 C 
ATOM     21  C   UNL     1      44.172  -3.127  12.094  0.00  0.00    +0.000 C 
ENDBRANCH  19  21
ENDBRANCH  13  19
ENDBRANCH  10  16
ENDBRANCH   1  11
BRANCH   2  22
ATOM     22  N   UNL     1      37.342   2.830  15.600  0.00  0.00    +0.000 NA
ATOM     23  C   UNL     1      37.798   3.689  16.632  0.00  0.00    +0.000 C 
ATOM     24  O   UNL     1      37.604   3.415  17.841  0.00  0.00    +0.000 OA
BRANCH  23  25
ATOM     25  C   UNL     1      38.521   4.946  16.318  0.00  0.00    +0.000 C 
BRANCH  25  26
ATOM     26  C   UNL     1      38.711   5.794  17.503  0.00  0.00    +0.000 A 
ATOM     27  C   UNL     1      37.954   6.906  17.799  0.00  0.00    +0.000 A 
ATOM     28  C   UNL     1      38.191   7.655  18.932  0.00  0.00    +0.000 A 
ATOM     29  C   UNL     1      39.196   7.311  19.807  0.00  0.00    +0.000 A 
ATOM     30  C   UNL     1      39.958   6.201  19.521  0.00  0.00    +0.000 A 
ATOM     31  C   UNL     1      39.713   5.464  18.389  0.00  0.00    +0.000 A 
ENDBRANCH  25  26
ENDBRANCH  23  25
ENDBRANCH   2  22
TORSDOF 7
ENDMDL
MODEL 4
REMARK VINA RESULT:      -6.6      2.693      8.104
REMARK  Name = 
REMARK  7 active torsions:
REMARK  status: ('A' for Active; 'I' for Inactive)
REMARK    1  A    between atoms: C_2  and  O_3
REMARK    2  A    between atoms: O_3  and  C_4
REMARK    3  A    between atoms: C_7  and  N_8
REMARK    4  A    between atoms: C_9  and  C_11
REMARK    5  A    between atoms: C_12  and  N_13
REMARK    6  A    between atoms: C_14  and  C_16
REMARK    7  A    between atoms: C_16  and  C_17
REMARK                            x       y       z     vdW  Elec       q    Type
REMARK                         _______ _______ _______ _____ _____    ______ ____
ROOT
ATOM      1  C   UNL     1      38.087  -1.059  15.683  0.00  0.00    +0.000 A 
ATOM      2  C   UNL     1      39.064  -1.636  14.912  0.00  0.00    +0.000 A 
ATOM      3  S   UNL     1      39.689  -2.855  15.920  0.00  0.00    +0.000 S 
ATOM      4  C   UNL     1      38.712  -2.615  17.285  0.00  0.00    +0.000 A 
ATOM      5  C   UNL     1      37.908  -1.569  16.913  0.00  0.00    +0.000 A 
ATOM      6  C   UNL     1      36.892  -1.100  17.957  0.00  0.00    +0.000 C 
ATOM      7  C   UNL     1      37.521  -1.239  19.330  0.00  0.00    +0.000 C 
ATOM      8  C   UNL     1      37.705  -2.701  19.572  0.00  0.00    +0.000 C 
ATOM      9  C   UNL     1      38.658  -3.304  18.606  0.00  0.00    +0.000 C 
ENDROOT
BRANCH   1  11
ATOM     10  N   UNL     1      37.576   1.431  15.464  0.00  0.00    +0.000 NA
ATOM     11  C   UNL     1      37.297   0.080  15.120  0.00  0.00    +0.000 C 
ATOM     12  O   UNL     1      36.361  -0.094  14.327  0.00  0.00    +0.000 OA
BRANCH  10  16
ATOM     13  C   UNL     1      35.567   4.724  13.788  0.00  0.00    +0.000 A 
ATOM     14  C   UNL     1      36.794   4.298  13.323  0.00  0.00    +0.000 A 
ATOM     15  C   UNL     1      37.421   3.221  13.891  0.00  0.00    +0.000 A 
ATOM     16  C   UNL     1      36.847   2.527  14.949  0.00  0.00    +0.000 A 
ATOM     17  C   UNL     1      35.632   2.938  15.421  0.00  0.00    +0.000 A 
ATOM     18  C   UNL     1      35.010   4.023  14.840  0.00  0.00    +0.000 A 
BRANCH  13  19
ATOM     19  O   UNL     1      34.939   5.815  13.206  0.00  0.00    +0.000 OA
BRANCH  19  21
ATOM     20  C   UNL     1      34.259   7.974  14.086  0.00  0.00    +0.000 C 
ATOM     21  C   UNL     1      33.931   6.494  13.912  0.00  0.00    +0.000 C 
ENDBRANCH  19  21
ENDBRANCH  13  19
ENDBRANCH  10  16
ENDBRANCH   1  11
BRANCH   2  22
ATOM     22  N   UNL     1      39.471  -1.297  13.567  0.00  0.00    +0.000 NA
ATOM     23  C   UNL     1      40.306  -0.175  13.334  0.00  0.00    +0.000 C 
ATOM     24  O   UNL     1      40.709   0.545  14.280  0.00  0.00    +0.000 OA
BRANCH  23  25
ATOM     25  C   UNL     1      40.734   0.190  11.961  0.00  0.00    +0.000 C 
BRANCH  25  26
ATOM     26  C   UNL     1      39.829   1.163  11.333  0.00  0.00    +0.000 A 
ATOM     27  C   UNL     1      40.132   2.490  11.124  0.00  0.00    +0.000 A 
ATOM     28  C   UNL     1      39.231   3.346  10.528  0.00  0.00    +0.000 A 
ATOM     29  C   UNL     1      37.995   2.897  10.119  0.00  0.00    +0.000 A 
ATOM     30  C   UNL     1      37.684   1.572  10.322  0.00  0.00    +0.000 A 
ATOM     31  C   UNL     1      38.589   0.730  10.918  0.00  0.00    +0.000 A 
ENDBRANCH  25  26
ENDBRANCH  23  25
ENDBRANCH   2  22
TORSDOF 7
ENDMDL
MODEL 5
REMARK VINA RESULT:      -6.5     23.900     26.963
REMARK  Name = 
REMARK  7 active torsions:
REMARK  status: ('A' for Active; 'I' for Inactive)
REMARK    1  A    between atoms: C_2  and  O_3
REMARK    2  A    between atoms: O_3  and  C_4
REMARK    3  A    between atoms: C_7  and  N_8
REMARK    4  A    between atoms: C_9  and  C_11
REMARK    5  A    between atoms: C_12  and  N_13
REMARK    6  A    between atoms: C_14  and  C_16
REMARK    7  A    between atoms: C_16  and  C_17
REMARK                            x       y       z     vdW  Elec       q    Type
REMARK                         _______ _______ _______ _____ _____    ______ ____
ROOT
ATOM      1  C   UNL     1      12.833   0.366  27.522  0.00  0.00    +0.000 A 
ATOM      2  C   UNL     1      12.118  -0.717  27.966  0.00  0.00    +0.000 A 
ATOM      3  S   UNL     1      10.528  -0.123  28.066  0.00  0.00    +0.000 S 
ATOM      4  C   UNL     1      10.794   1.471  27.551  0.00  0.00    +0.000 A 
ATOM      5  C   UNL     1      12.143   1.500  27.308  0.00  0.00    +0.000 A 
ATOM      6  C   UNL     1      12.707   2.836  26.821  0.00  0.00    +0.000 C 
ATOM      7  C   UNL     1      11.945   3.953  27.505  0.00  0.00    +0.000 C 
ATOM      8  C   UNL     1      10.544   3.895  26.992  0.00  0.00    +0.000 C 
ATOM      9  C   UNL     1       9.870   2.628  27.372  0.00  0.00    +0.000 C 
ENDROOT
BRANCH   1  11
ATOM     10  N   UNL     1      14.854  -0.086  26.032  0.00  0.00    +0.000 NA
ATOM     11  C   UNL     1      14.307   0.226  27.307  0.00  0.00    +0.000 C 
ATOM     12  O   UNL     1      15.125   0.373  28.226  0.00  0.00    +0.000 OA
BRANCH  10  16
ATOM     13  C   UNL     1      18.992  -0.285  25.310  0.00  0.00    +0.000 A 
ATOM     14  C   UNL     1      18.301   0.908  25.293  0.00  0.00    +0.000 A 
ATOM     15  C   UNL     1      16.953   0.938  25.532  0.00  0.00    +0.000 A 
ATOM     16  C   UNL     1      16.241  -0.225  25.798  0.00  0.00    +0.000 A 
ATOM     17  C   UNL     1      16.913  -1.415  25.818  0.00  0.00    +0.000 A 
ATOM     18  C   UNL     1      18.270  -1.432  25.576  0.00  0.00    +0.000 A 
BRANCH  13  19
ATOM     19  O   UNL     1      20.358  -0.306  25.067  0.00  0.00    +0.000 OA
BRANCH  19  21
ATOM     20  C   UNL     1      20.626  -0.765  22.698  0.00  0.00    +0.000 C 
ATOM     21  C   UNL     1      20.856   0.203  23.855  0.00  0.00    +0.000 C 
ENDBRANCH  19  21
ENDBRANCH  13  19
ENDBRANCH  10  16
ENDBRANCH   1  11
BRANCH   2  22
ATOM     22  N   UNL     1      12.594  -2.046  28.274  0.00  0.00    +0.000 NA
ATOM     23  C   UNL     1      12.289  -3.132  27.415  0.00  0.00    +0.000 C 
ATOM     24  O   UNL     1      11.606  -2.968  26.375  0.00  0.00    +0.000 OA
BRANCH  23  25
ATOM     25  C   UNL     1      12.768  -4.505  27.715  0.00  0.00    +0.000 C 
BRANCH  25  26
ATOM     26  C   UNL     1      12.313  -4.982  29.028  0.00  0.00    +0.000 A 
ATOM     27  C   UNL     1      13.146  -5.273  30.086  0.00  0.00    +0.000 A 
ATOM     28  C   UNL     1      12.645  -5.717  31.291  0.00  0.00    +0.000 A 
ATOM     29  C   UNL     1      11.291  -5.883  31.475  0.00  0.00    +0.000 A 
ATOM     30  C   UNL     1      10.451  -5.594  30.425  0.00  0.00    +0.000 A 
ATOM     31  C   UNL     1      10.961  -5.153  29.229  0.00  0.00    +0.000 A 
ENDBRANCH  25  26
ENDBRANCH  23  25
ENDBRANCH   2  22
TORSDOF 7
ENDMDL
MODEL 6
REMARK VINA RESULT:      -6.5     24.386     27.541
REMARK  Name = 
REMARK  7 active torsions:
REMARK  status: ('A' for Active; 'I' for Inactive)
REMARK    1  A    between atoms: C_2  and  O_3
REMARK    2  A    between atoms: O_3  and  C_4
REMARK    3  A    between atoms: C_7  and  N_8
REMARK    4  A    between atoms: C_9  and  C_11
REMARK    5  A    between atoms: C_12  and  N_13
REMARK    6  A    between atoms: C_14  and  C_16
REMARK    7  A    between atoms: C_16  and  C_17
REMARK                            x       y       z     vdW  Elec       q    Type
REMARK                         _______ _______ _______ _____ _____    ______ ____
ROOT
ATOM      1  C   UNL     1      12.759   0.893  28.770  0.00  0.00    +0.000 A 
ATOM      2  C   UNL     1      12.527   0.578  30.084  0.00  0.00    +0.000 A 
ATOM      3  S   UNL     1      11.244   1.607  30.514  0.00  0.00    +0.000 S 
ATOM      4  C   UNL     1      11.026   2.411  29.036  0.00  0.00    +0.000 A 
ATOM      5  C   UNL     1      11.978   1.844  28.229  0.00  0.00    +0.000 A 
ATOM      6  C   UNL     1      12.041   2.372  26.795  0.00  0.00    +0.000 C 
ATOM      7  C   UNL     1      11.722   3.854  26.818  0.00  0.00    +0.000 C 
ATOM      8  C   UNL     1      10.294   3.979  27.232  0.00  0.00    +0.000 C 
ATOM      9  C   UNL     1      10.074   3.477  28.612  0.00  0.00    +0.000 C 
ENDROOT
BRANCH   1  11
ATOM     10  N   UNL     1      15.097   0.785  27.756  0.00  0.00    +0.000 NA
ATOM     11  C   UNL     1      13.843   0.174  28.031  0.00  0.00    +0.000 C 
ATOM     12  O   UNL     1      13.706  -0.988  27.622  0.00  0.00    +0.000 OA
BRANCH  10  16
ATOM     13  C   UNL     1      18.319  -1.152  25.870  0.00  0.00    +0.000 A 
ATOM     14  C   UNL     1      18.366  -0.769  27.194  0.00  0.00    +0.000 A 
ATOM     15  C   UNL     1      17.299  -0.140  27.778  0.00  0.00    +0.000 A 
ATOM     16  C   UNL     1      16.141   0.132  27.060  0.00  0.00    +0.000 A 
ATOM     17  C   UNL     1      16.079  -0.241  25.748  0.00  0.00    +0.000 A 
ATOM     18  C   UNL     1      17.160  -0.875  25.171  0.00  0.00    +0.000 A 
BRANCH  13  19
ATOM     19  O   UNL     1      19.404  -1.790  25.287  0.00  0.00    +0.000 OA
BRANCH  19  21
ATOM     20  C   UNL     1      20.252  -0.999  23.154  0.00  0.00    +0.000 C 
ATOM     21  C   UNL     1      19.407  -2.027  23.902  0.00  0.00    +0.000 C 
ENDBRANCH  19  21
ENDBRANCH  13  19
ENDBRANCH  10  16
ENDBRANCH   1  11
BRANCH   2  22
ATOM     22  N   UNL     1      13.205  -0.394  30.912  0.00  0.00    +0.000 NA
ATOM     23  C   UNL     1      14.217   0.018  31.816  0.00  0.00    +0.000 C 
ATOM     24  O   UNL     1      14.547   1.225  31.918  0.00  0.00    +0.000 OA
BRANCH  23  25
ATOM     25  C   UNL     1      14.925  -0.964  32.674  0.00  0.00    +0.000 C 
BRANCH  25  26
ATOM     26  C   UNL     1      14.480  -0.909  34.073  0.00  0.00    +0.000 A 
ATOM     27  C   UNL     1      13.275  -1.396  34.530  0.00  0.00    +0.000 A 
ATOM     28  C   UNL     1      12.924  -1.307  35.861  0.00  0.00    +0.000 A 
ATOM     29  C   UNL     1      13.773  -0.728  36.777  0.00  0.00    +0.000 A 
ATOM     30  C   UNL     1      14.979  -0.239  36.331  0.00  0.00    +0.000 A 
ATOM     31  C   UNL     1      15.317  -0.332  35.003  0.00  0.00    +0.000 A 
ENDBRANCH  25  26
ENDBRANCH  23  25
ENDBRANCH   2  22
TORSDOF 7
ENDMDL
MODEL 7
REMARK VINA RESULT:      -6.5      2.689      8.146
REMARK  Name = 
REMARK  7 active torsions:
REMARK  status: ('A' for Active; 'I' for Inactive)
REMARK    1  A    between atoms: C_2  and  O_3
REMARK    2  A    between atoms: O_3  and  C_4
REMARK    3  A    between atoms: C_7  and  N_8
REMARK    4  A    between atoms: C_9  and  C_11
REMARK    5  A    between atoms: C_12  and  N_13
REMARK    6  A    between atoms: C_14  and  C_16
REMARK    7  A    between atoms: C_16  and  C_17
REMARK                            x       y       z     vdW  Elec       q    Type
REMARK                         _______ _______ _______ _____ _____    ______ ____
ROOT
ATOM      1  C   UNL     1      38.157  -0.990  15.681  0.00  0.00    +0.000 A 
ATOM      2  C   UNL     1      39.172  -1.553  14.950  0.00  0.00    +0.000 A 
ATOM      3  S   UNL     1      39.756  -2.781  15.973  0.00  0.00    +0.000 S 
ATOM      4  C   UNL     1      38.715  -2.560  17.293  0.00  0.00    +0.000 A 
ATOM      5  C   UNL     1      37.923  -1.515  16.895  0.00  0.00    +0.000 A 
ATOM      6  C   UNL     1      36.857  -1.063  17.896  0.00  0.00    +0.000 C 
ATOM      7  C   UNL     1      37.422  -1.215  19.295  0.00  0.00    +0.000 C 
ATOM      8  C   UNL     1      37.602  -2.678  19.529  0.00  0.00    +0.000 C 
ATOM      9  C   UNL     1      38.602  -3.265  18.602  0.00  0.00    +0.000 C 
ENDROOT
BRANCH   1  11
ATOM     10  N   UNL     1      37.585   1.492  15.526  0.00  0.00    +0.000 NA
ATOM     11  C   UNL     1      37.387   0.151  15.094  0.00  0.00    +0.000 C 
ATOM     12  O   UNL     1      36.541  -0.011  14.204  0.00  0.00    +0.000 OA
BRANCH  10  16
ATOM     13  C   UNL     1      35.635   4.796  13.802  0.00  0.00    +0.000 A 
ATOM     14  C   UNL     1      36.894   4.396  13.405  0.00  0.00    +0.000 A 
ATOM     15  C   UNL     1      37.500   3.315  13.987  0.00  0.00    +0.000 A 
ATOM     16  C   UNL     1      36.873   2.590  14.992  0.00  0.00    +0.000 A 
ATOM     17  C   UNL     1      35.626   2.974  15.396  0.00  0.00    +0.000 A 
ATOM     18  C   UNL     1      35.025   4.063  14.803  0.00  0.00    +0.000 A 
BRANCH  13  19
ATOM     19  O   UNL     1      35.028   5.891  13.207  0.00  0.00    +0.000 OA
BRANCH  19  21
ATOM     20  C   UNL     1      34.212   7.802  14.463  0.00  0.00    +0.000 C 
ATOM     21  C   UNL     1      33.891   6.464  13.803  0.00  0.00    +0.000 C 
ENDBRANCH  19  21
ENDBRANCH  13  19
ENDBRANCH  10  16
ENDBRANCH   1  11
BRANCH   2  22
ATOM     22  N   UNL     1      39.640  -1.196  13.630  0.00  0.00    +0.000 NA
ATOM     23  C   UNL     1      39.358  -2.034  12.521  0.00  0.00    +0.000 C 
ATOM     24  O   UNL     1      38.703  -3.096  12.657  0.00  0.00    +0.000 OA
BRANCH  23  25
ATOM     25  C   UNL     1      39.830  -1.685  11.158  0.00  0.00    +0.000 C 
BRANCH  25  26
ATOM     26  C   UNL     1      40.789  -2.664  10.630  0.00  0.00    +0.000 A 
ATOM     27  C   UNL     1      40.633  -3.352   9.447  0.00  0.00    +0.000 A 
ATOM     28  C   UNL     1      41.578  -4.258   9.014  0.00  0.00    +0.000 A 
ATOM     29  C   UNL     1      42.712  -4.503   9.755  0.00  0.00    +0.000 A 
ATOM     30  C   UNL     1      42.878  -3.821  10.938  0.00  0.00    +0.000 A 
ATOM     31  C   UNL     1      41.929  -2.921  11.359  0.00  0.00    +0.000 A 
ENDBRANCH  25  26
ENDBRANCH  23  25
ENDBRANCH   2  22
TORSDOF 7
ENDMDL
MODEL 8
REMARK VINA RESULT:      -6.4      3.754      8.347
REMARK  Name = 
REMARK  7 active torsions:
REMARK  status: ('A' for Active; 'I' for Inactive)
REMARK    1  A    between atoms: C_2  and  O_3
REMARK    2  A    between atoms: O_3  and  C_4
REMARK    3  A    between atoms: C_7  and  N_8
REMARK    4  A    between atoms: C_9  and  C_11
REMARK    5  A    between atoms: C_12  and  N_13
REMARK    6  A    between atoms: C_14  and  C_16
REMARK    7  A    between atoms: C_16  and  C_17
REMARK                            x       y       z     vdW  Elec       q    Type
REMARK                         _______ _______ _______ _____ _____    ______ ____
ROOT
ATOM      1  C   UNL     1      36.728   1.404  15.472  0.00  0.00    +0.000 A 
ATOM      2  C   UNL     1      37.357   0.998  14.323  0.00  0.00    +0.000 A 
ATOM      3  S   UNL     1      36.902  -0.635  14.185  0.00  0.00    +0.000 S 
ATOM      4  C   UNL     1      35.934  -0.773  15.570  0.00  0.00    +0.000 A 
ATOM      5  C   UNL     1      35.991   0.484  16.117  0.00  0.00    +0.000 A 
ATOM      6  C   UNL     1      35.201   0.687  17.412  0.00  0.00    +0.000 C 
ATOM      7  C   UNL     1      35.275  -0.593  18.221  0.00  0.00    +0.000 C 
ATOM      8  C   UNL     1      34.527  -1.631  17.450  0.00  0.00    +0.000 C 
ATOM      9  C   UNL     1      35.171  -1.918  16.144  0.00  0.00    +0.000 C 
ENDROOT
BRANCH   1  11
ATOM     10  N   UNL     1      38.115   3.287  16.492  0.00  0.00    +0.000 NA
ATOM     11  C   UNL     1      36.895   2.819  15.930  0.00  0.00    +0.000 C 
ATOM     12  O   UNL     1      35.984   3.654  15.844  0.00  0.00    +0.000 OA
BRANCH  10  16
ATOM     13  C   UNL     1      38.744   7.163  17.999  0.00  0.00    +0.000 A 
ATOM     14  C   UNL     1      38.985   6.034  18.753  0.00  0.00    +0.000 A 
ATOM     15  C   UNL     1      38.771   4.786  18.232  0.00  0.00    +0.000 A 
ATOM     16  C   UNL     1      38.304   4.617  16.934  0.00  0.00    +0.000 A 
ATOM     17  C   UNL     1      38.060   5.726  16.175  0.00  0.00    +0.000 A 
ATOM     18  C   UNL     1      38.280   6.977  16.710  0.00  0.00    +0.000 A 
BRANCH  13  19
ATOM     19  O   UNL     1      38.965   8.423  18.535  0.00  0.00    +0.000 OA
BRANCH  19  21
ATOM     20  C   UNL     1      36.793   8.751  19.569  0.00  0.00    +0.000 C 
ATOM     21  C   UNL     1      38.311   8.798  19.721  0.00  0.00    +0.000 C 
ENDBRANCH  19  21
ENDBRANCH  13  19
ENDBRANCH  10  16
ENDBRANCH   1  11
BRANCH   2  22
ATOM     22  N   UNL     1      38.203   1.765  13.438  0.00  0.00    +0.000 NA
ATOM     23  C   UNL     1      39.599   1.845  13.674  0.00  0.00    +0.000 C 
ATOM     24  O   UNL     1      40.129   1.258  14.648  0.00  0.00    +0.000 OA
BRANCH  23  25
ATOM     25  C   UNL     1      40.484   2.629  12.777  0.00  0.00    +0.000 C 
BRANCH  25  26
ATOM     26  C   UNL     1      40.307   4.078  12.941  0.00  0.00    +0.000 A 
ATOM     27  C   UNL     1      39.406   4.841  12.232  0.00  0.00    +0.000 A 
ATOM     28  C   UNL     1      39.296   6.199  12.441  0.00  0.00    +0.000 A 
ATOM     29  C   UNL     1      40.087   6.837  13.369  0.00  0.00    +0.000 A 
ATOM     30  C   UNL     1      40.989   6.084  14.084  0.00  0.00    +0.000 A 
ATOM     31  C   UNL     1      41.090   4.732  13.867  0.00  0.00    +0.000 A 
ENDBRANCH  25  26
ENDBRANCH  23  25
ENDBRANCH   2  22
TORSDOF 7
ENDMDL
MODEL 9
REMARK VINA RESULT:      -6.4     28.560     31.643
REMARK  Name = 
REMARK  7 active torsions:
REMARK  status: ('A' for Active; 'I' for Inactive)
REMARK    1  A    between atoms: C_2  and  O_3
REMARK    2  A    between atoms: O_3  and  C_4
REMARK    3  A    between atoms: C_7  and  N_8
REMARK    4  A    between atoms: C_9  and  C_11
REMARK    5  A    between atoms: C_12  and  N_13
REMARK    6  A    between atoms: C_14  and  C_16
REMARK    7  A    between atoms: C_16  and  C_17
REMARK                            x       y       z     vdW  Elec       q    Type
REMARK                         _______ _______ _______ _____ _____    ______ ____
ROOT
ATOM      1  C   UNL     1      23.749  17.035  39.595  0.00  0.00    +0.000 A 
ATOM      2  C   UNL     1      24.094  17.322  38.299  0.00  0.00    +0.000 A 
ATOM      3  S   UNL     1      23.619  18.946  38.119  0.00  0.00    +0.000 S 
ATOM      4  C   UNL     1      22.999  19.227  39.672  0.00  0.00    +0.000 A 
ATOM      5  C   UNL     1      23.181  18.025  40.304  0.00  0.00    +0.000 A 
ATOM      6  C   UNL     1      22.707  17.953  41.757  0.00  0.00    +0.000 C 
ATOM      7  C   UNL     1      21.458  18.801  41.893  0.00  0.00    +0.000 C 
ATOM      8  C   UNL     1      21.875  20.218  41.673  0.00  0.00    +0.000 C 
ATOM      9  C   UNL     1      22.386  20.435  40.297  0.00  0.00    +0.000 C 
ENDROOT
BRANCH   1  11
ATOM     10  N   UNL     1      25.238  15.343  40.792  0.00  0.00    +0.000 NA
ATOM     11  C   UNL     1      24.020  15.664  40.131  0.00  0.00    +0.000 C 
ATOM     12  O   UNL     1      23.201  14.741  40.029  0.00  0.00    +0.000 OA
BRANCH  10  16
ATOM     13  C   UNL     1      26.188  11.474  42.140  0.00  0.00    +0.000 A 
ATOM     14  C   UNL     1      26.557  11.928  40.892  0.00  0.00    +0.000 A 
ATOM     15  C   UNL     1      26.232  13.194  40.483  0.00  0.00    +0.000 A 
ATOM     16  C   UNL     1      25.523  14.058  41.308  0.00  0.00    +0.000 A 
ATOM     17  C   UNL     1      25.150  13.623  42.548  0.00  0.00    +0.000 A 
ATOM     18  C   UNL     1      25.484  12.347  42.949  0.00  0.00    +0.000 A 
BRANCH  13  19
ATOM     19  O   UNL     1      26.522  10.191  42.546  0.00  0.00    +0.000 OA
BRANCH  19  21
ATOM     20  C   UNL     1      28.272   8.680  41.805  0.00  0.00    +0.000 C 
ATOM     21  C   UNL     1      27.874   9.844  42.709  0.00  0.00    +0.000 C 
ENDBRANCH  19  21
ENDBRANCH  13  19
ENDBRANCH  10  16
ENDBRANCH   1  11
BRANCH   2  22
ATOM     22  N   UNL     1      24.712  16.461  37.317  0.00  0.00    +0.000 NA
ATOM     23  C   UNL     1      26.114  16.505  37.109  0.00  0.00    +0.000 C 
ATOM     24  O   UNL     1      26.846  17.285  37.765  0.00  0.00    +0.000 OA
BRANCH  23  25
ATOM     25  C   UNL     1      26.767  15.628  36.105  0.00  0.00    +0.000 C 
BRANCH  25  26
ATOM     26  C   UNL     1      26.098  15.679  34.798  0.00  0.00    +0.000 A 
ATOM     27  C   UNL     1      25.603  16.826  34.217  0.00  0.00    +0.000 A 
ATOM     28  C   UNL     1      24.985  16.796  32.985  0.00  0.00    +0.000 A 
ATOM     29  C   UNL     1      24.845  15.614  32.294  0.00  0.00    +0.000 A 
ATOM     30  C   UNL     1      25.338  14.463  32.865  0.00  0.00    +0.000 A 
ATOM     31  C   UNL     1      25.950  14.505  34.093  0.00  0.00    +0.000 A 
ENDBRANCH  25  26
ENDBRANCH  23  25
ENDBRANCH   2  22
TORSDOF 7
ENDMDL
MODEL 10
REMARK VINA RESULT:      -6.3      3.728      5.721
REMARK  Name = 
REMARK  7 active torsions:
REMARK  status: ('A' for Active; 'I' for Inactive)
REMARK    1  A    between atoms: C_2  and  O_3
REMARK    2  A    between atoms: O_3  and  C_4
REMARK    3  A    between atoms: C_7  and  N_8
REMARK    4  A    between atoms: C_9  and  C_11
REMARK    5  A    between atoms: C_12  and  N_13
REMARK    6  A    between atoms: C_14  and  C_16
REMARK    7  A    between atoms: C_16  and  C_17
REMARK                            x       y       z     vdW  Elec       q    Type
REMARK                         _______ _______ _______ _____ _____    ______ ____
ROOT
ATOM      1  C   UNL     1      37.451   2.471  13.107  0.00  0.00    +0.000 A 
ATOM      2  C   UNL     1      36.912   1.236  13.365  0.00  0.00    +0.000 A 
ATOM      3  S   UNL     1      36.931   0.475  11.844  0.00  0.00    +0.000 S 
ATOM      4  C   UNL     1      37.613   1.721  10.918  0.00  0.00    +0.000 A 
ATOM      5  C   UNL     1      37.813   2.719  11.837  0.00  0.00    +0.000 A 
ATOM      6  C   UNL     1      38.428   4.012  11.298  0.00  0.00    +0.000 C 
ATOM      7  C   UNL     1      37.899   4.244   9.896  0.00  0.00    +0.000 C 
ATOM      8  C   UNL     1      38.448   3.149   9.043  0.00  0.00    +0.000 C 
ATOM      9  C   UNL     1      37.950   1.816   9.469  0.00  0.00    +0.000 C 
ENDROOT
BRANCH   1  11
ATOM     10  N   UNL     1      38.788   3.520  15.009  0.00  0.00    +0.000 NA
ATOM     11  C   UNL     1      37.600   3.447  14.231  0.00  0.00    +0.000 C 
ATOM     12  O   UNL     1      36.700   4.241  14.540  0.00  0.00    +0.000 OA
BRANCH  10  16
ATOM     13  C   UNL     1      39.419   6.353  18.053  0.00  0.00    +0.000 A 
ATOM     14  C   UNL     1      39.972   6.489  16.797  0.00  0.00    +0.000 A 
ATOM     15  C   UNL     1      39.746   5.549  15.828  0.00  0.00    +0.000 A 
ATOM     16  C   UNL     1      38.959   4.431  16.077  0.00  0.00    +0.000 A 
ATOM     17  C   UNL     1      38.404   4.282  17.317  0.00  0.00    +0.000 A 
ATOM     18  C   UNL     1      38.638   5.236  18.284  0.00  0.00    +0.000 A 
BRANCH  13  19
ATOM     19  O   UNL     1      39.652   7.311  19.029  0.00  0.00    +0.000 OA
BRANCH  19  21
ATOM     20  C   UNL     1      41.620   6.433  20.147  0.00  0.00    +0.000 C 
ATOM     21  C   UNL     1      40.180   6.922  20.272  0.00  0.00    +0.000 C 
ENDBRANCH  19  21
ENDBRANCH  13  19
ENDBRANCH  10  16
ENDBRANCH   1  11
BRANCH   2  22
ATOM     22  N   UNL     1      36.441   0.702  14.623  0.00  0.00    +0.000 NA
ATOM     23  C   UNL     1      37.348   0.090  15.525  0.00  0.00    +0.000 C 
ATOM     24  O   UNL     1      38.570  -0.002  15.256  0.00  0.00    +0.000 OA
BRANCH  23  25
ATOM     25  C   UNL     1      36.883  -0.464  16.820  0.00  0.00    +0.000 C 
BRANCH  25  26
ATOM     26  C   UNL     1      37.388  -1.823  17.061  0.00  0.00    +0.000 A 
ATOM     27  C   UNL     1      38.308  -2.155  18.031  0.00  0.00    +0.000 A 
ATOM     28  C   UNL     1      38.736  -3.454  18.199  0.00  0.00    +0.000 A 
ATOM     29  C   UNL     1      38.254  -4.465  17.398  0.00  0.00    +0.000 A 
ATOM     30  C   UNL     1      37.334  -4.144  16.426  0.00  0.00    +0.000 A 
ATOM     31  C   UNL     1      36.916  -2.846  16.269  0.00  0.00    +0.000 A 
ENDBRANCH  25  26
ENDBRANCH  23  25
ENDBRANCH   2  22
TORSDOF 7
ENDMDL
