MODEL 1
REMARK VINA RESULT:      -7.7      0.000      0.000
REMARK  Name = 
REMARK  3 active torsions:
REMARK  status: ('A' for Active; 'I' for Inactive)
REMARK    1  A    between atoms: C_7  and  N_8
REMARK    2  A    between atoms: C_9  and  C_11
REMARK    3  A    between atoms: C_17  and  N_18
REMARK                            x       y       z     vdW  Elec       q    Type
REMARK                         _______ _______ _______ _____ _____    ______ ____
ROOT
ATOM      1  N   UNL     1      16.927  10.404  37.617  0.00  0.00    +0.000 NA
ATOM      2  C   UNL     1      16.185  11.612  37.429  0.00  0.00    +0.000 C 
ATOM      3  O   UNL     1      16.762  12.663  37.228  0.00  0.00    +0.000 OA
ENDROOT
BRANCH   1  10
ATOM      4  C   UNL     1      21.259  11.608  39.602  0.00  0.00    +0.000 C 
ATOM      5  C   UNL     1      20.509  10.956  38.505  0.00  0.00    +0.000 A 
ATOM      6  C   UNL     1      21.121  10.326  37.452  0.00  0.00    +0.000 A 
ATOM      7  C   UNL     1      20.391   9.721  36.445  0.00  0.00    +0.000 A 
ATOM      8  C   UNL     1      18.993   9.768  36.528  0.00  0.00    +0.000 A 
ATOM      9  C   UNL     1      18.149   9.137  35.488  0.00  0.00    +0.000 C 
ATOM     10  C   UNL     1      18.345  10.397  37.580  0.00  0.00    +0.000 A 
ATOM     11  C   UNL     1      19.119  10.986  38.562  0.00  0.00    +0.000 A 
ENDBRANCH   1  10
BRANCH   2  12
ATOM     12  C   UNL     1      14.745  11.454  37.513  0.00  0.00    +0.000 A 
ATOM     13  C   UNL     1      14.219  10.887  38.702  0.00  0.00    +0.000 A 
ATOM     14  C   UNL     1      12.871  10.686  38.836  0.00  0.00    +0.000 A 
ATOM     15  C   UNL     1      12.001  11.023  37.835  0.00  0.00    +0.000 A 
ATOM     16  F   UNL     1      10.642  10.820  37.975  0.00  0.00    +0.000 F 
ATOM     17  C   UNL     1      12.503  11.575  36.678  0.00  0.00    +0.000 A 
ATOM     18  C   UNL     1      13.876  11.795  36.506  0.00  0.00    +0.000 A 
BRANCH  18  19
ATOM     19  N   UNL     1      14.344  12.356  35.289  0.00  0.00    +0.000 N 
ATOM     20  O   UNL     1      14.208  13.546  35.033  0.00  0.00    +0.000 OA
ATOM     21  O   UNL     1      14.947  11.470  34.394  0.00  0.00    +0.000 OA
ENDBRANCH  18  19
ENDBRANCH   2  12
TORSDOF 3
ENDMDL
MODEL 2
REMARK VINA RESULT:      -7.7      3.397      5.260
REMARK  Name = 
REMARK  3 active torsions:
REMARK  status: ('A' for Active; 'I' for Inactive)
REMARK    1  A    between atoms: C_7  and  N_8
REMARK    2  A    between atoms: C_9  and  C_11
REMARK    3  A    between atoms: C_17  and  N_18
REMARK                            x       y       z     vdW  Elec       q    Type
REMARK                         _______ _______ _______ _____ _____    ______ ____
ROOT
ATOM      1  N   UNL     1      14.948  11.324  34.818  0.00  0.00    +0.000 NA
ATOM      2  C   UNL     1      15.306  12.108  35.960  0.00  0.00    +0.000 C 
ATOM      3  O   UNL     1      15.778  13.220  35.819  0.00  0.00    +0.000 OA
ENDROOT
BRANCH   1  10
ATOM      4  C   UNL     1      13.598  14.267  31.121  0.00  0.00    +0.000 C 
ATOM      5  C   UNL     1      14.525  13.238  31.644  0.00  0.00    +0.000 A 
ATOM      6  C   UNL     1      15.576  12.741  30.917  0.00  0.00    +0.000 A 
ATOM      7  C   UNL     1      16.428  11.783  31.436  0.00  0.00    +0.000 A 
ATOM      8  C   UNL     1      16.189  11.329  32.740  0.00  0.00    +0.000 A 
ATOM      9  C   UNL     1      17.065  10.309  33.362  0.00  0.00    +0.000 C 
ATOM     10  C   UNL     1      15.136  11.813  33.500  0.00  0.00    +0.000 A 
ATOM     11  C   UNL     1      14.312  12.770  32.937  0.00  0.00    +0.000 A 
ENDBRANCH   1  10
BRANCH   2  12
ATOM     12  C   UNL     1      15.067  11.459  37.235  0.00  0.00    +0.000 A 
ATOM     13  C   UNL     1      16.198  10.974  37.943  0.00  0.00    +0.000 A 
ATOM     14  C   UNL     1      16.041  10.328  39.140  0.00  0.00    +0.000 A 
ATOM     15  C   UNL     1      14.801  10.133  39.683  0.00  0.00    +0.000 A 
ATOM     16  F   UNL     1      14.647   9.483  40.891  0.00  0.00    +0.000 F 
ATOM     17  C   UNL     1      13.698  10.601  39.004  0.00  0.00    +0.000 A 
ATOM     18  C   UNL     1      13.821  11.266  37.777  0.00  0.00    +0.000 A 
BRANCH  18  19
ATOM     19  N   UNL     1      12.651  11.718  37.111  0.00  0.00    +0.000 N 
ATOM     20  O   UNL     1      12.497  12.895  36.806  0.00  0.00    +0.000 OA
ATOM     21  O   UNL     1      11.682  10.751  36.843  0.00  0.00    +0.000 OA
ENDBRANCH  18  19
ENDBRANCH   2  12
TORSDOF 3
ENDMDL
MODEL 3
REMARK VINA RESULT:      -7.6      3.317      5.545
REMARK  Name = 
REMARK  3 active torsions:
REMARK  status: ('A' for Active; 'I' for Inactive)
REMARK    1  A    between atoms: C_7  and  N_8
REMARK    2  A    between atoms: C_9  and  C_11
REMARK    3  A    between atoms: C_17  and  N_18
REMARK                            x       y       z     vdW  Elec       q    Type
REMARK                         _______ _______ _______ _____ _____    ______ ____
ROOT
ATOM      1  N   UNL     1      15.242  11.279  34.973  0.00  0.00    +0.000 NA
ATOM      2  C   UNL     1      15.914  11.923  36.059  0.00  0.00    +0.000 C 
ATOM      3  O   UNL     1      16.528  12.957  35.875  0.00  0.00    +0.000 OA
ENDROOT
BRANCH   1  10
ATOM      4  C   UNL     1      13.566  14.457  31.619  0.00  0.00    +0.000 C 
ATOM      5  C   UNL     1      14.496  13.359  31.966  0.00  0.00    +0.000 A 
ATOM      6  C   UNL     1      15.407  12.843  31.081  0.00  0.00    +0.000 A 
ATOM      7  C   UNL     1      16.266  11.820  31.438  0.00  0.00    +0.000 A 
ATOM      8  C   UNL     1      16.183  11.318  32.743  0.00  0.00    +0.000 A 
ATOM      9  C   UNL     1      17.077  10.227  33.196  0.00  0.00    +0.000 C 
ATOM     10  C   UNL     1      15.274  11.819  33.661  0.00  0.00    +0.000 A 
ATOM     11  C   UNL     1      14.436  12.842  33.257  0.00  0.00    +0.000 A 
ENDBRANCH   1  10
BRANCH   2  12
ATOM     12  C   UNL     1      15.800  11.235  37.331  0.00  0.00    +0.000 A 
ATOM     13  C   UNL     1      14.537  11.264  37.977  0.00  0.00    +0.000 A 
ATOM     14  C   UNL     1      14.366  10.657  39.192  0.00  0.00    +0.000 A 
ATOM     15  C   UNL     1      15.400  10.012  39.814  0.00  0.00    +0.000 A 
ATOM     16  F   UNL     1      15.224   9.400  41.039  0.00  0.00    +0.000 F 
ATOM     17  C   UNL     1      16.630   9.978  39.194  0.00  0.00    +0.000 A 
ATOM     18  C   UNL     1      16.840  10.589  37.950  0.00  0.00    +0.000 A 
BRANCH  18  19
ATOM     19  N   UNL     1      18.130  10.536  37.359  0.00  0.00    +0.000 N 
ATOM     20  O   UNL     1      18.444   9.648  36.575  0.00  0.00    +0.000 OA
ATOM     21  O   UNL     1      19.022  11.540  37.737  0.00  0.00    +0.000 OA
ENDBRANCH  18  19
ENDBRANCH   2  12
TORSDOF 3
ENDMDL
MODEL 4
REMARK VINA RESULT:      -7.5      3.307      5.255
REMARK  Name = 
REMARK  3 active torsions:
REMARK  status: ('A' for Active; 'I' for Inactive)
REMARK    1  A    between atoms: C_7  and  N_8
REMARK    2  A    between atoms: C_9  and  C_11
REMARK    3  A    between atoms: C_17  and  N_18
REMARK                            x       y       z     vdW  Elec       q    Type
REMARK                         _______ _______ _______ _____ _____    ______ ____
ROOT
ATOM      1  N   UNL     1      14.112  11.510  36.202  0.00  0.00    +0.000 NA
ATOM      2  C   UNL     1      14.870  12.622  35.718  0.00  0.00    +0.000 C 
ATOM      3  O   UNL     1      15.691  13.164  36.433  0.00  0.00    +0.000 OA
ENDROOT
BRANCH   1  10
ATOM      4  C   UNL     1      17.044   9.868  39.789  0.00  0.00    +0.000 C 
ATOM      5  C   UNL     1      15.678  10.201  39.326  0.00  0.00    +0.000 A 
ATOM      6  C   UNL     1      14.567  10.067  40.118  0.00  0.00    +0.000 A 
ATOM      7  C   UNL     1      13.304  10.391  39.657  0.00  0.00    +0.000 A 
ATOM      8  C   UNL     1      13.186  10.867  38.344  0.00  0.00    +0.000 A 
ATOM      9  C   UNL     1      11.865  11.239  37.787  0.00  0.00    +0.000 C 
ATOM     10  C   UNL     1      14.290  11.014  37.519  0.00  0.00    +0.000 A 
ATOM     11  C   UNL     1      15.531  10.676  38.026  0.00  0.00    +0.000 A 
ENDBRANCH   1  10
BRANCH   2  12
ATOM     12  C   UNL     1      14.557  13.017  34.357  0.00  0.00    +0.000 A 
ATOM     13  C   UNL     1      13.703  14.136  34.182  0.00  0.00    +0.000 A 
ATOM     14  C   UNL     1      13.347  14.545  32.925  0.00  0.00    +0.000 A 
ATOM     15  C   UNL     1      13.801  13.893  31.812  0.00  0.00    +0.000 A 
ATOM     16  F   UNL     1      13.441  14.310  30.545  0.00  0.00    +0.000 F 
ATOM     17  C   UNL     1      14.632  12.807  31.972  0.00  0.00    +0.000 A 
ATOM     18  C   UNL     1      15.016  12.359  33.243  0.00  0.00    +0.000 A 
BRANCH  18  19
ATOM     19  N   UNL     1      15.865  11.227  33.355  0.00  0.00    +0.000 N 
ATOM     20  O   UNL     1      15.462  10.093  33.126  0.00  0.00    +0.000 OA
ATOM     21  O   UNL     1      17.177  11.479  33.760  0.00  0.00    +0.000 OA
ENDBRANCH  18  19
ENDBRANCH   2  12
TORSDOF 3
ENDMDL
MODEL 5
REMARK VINA RESULT:      -7.4      3.292      5.857
REMARK  Name = 
REMARK  3 active torsions:
REMARK  status: ('A' for Active; 'I' for Inactive)
REMARK    1  A    between atoms: C_7  and  N_8
REMARK    2  A    between atoms: C_9  and  C_11
REMARK    3  A    between atoms: C_17  and  N_18
REMARK                            x       y       z     vdW  Elec       q    Type
REMARK                         _______ _______ _______ _____ _____    ______ ____
ROOT
ATOM      1  N   UNL     1      15.397  11.241  36.048  0.00  0.00    +0.000 NA
ATOM      2  C   UNL     1      16.639  11.515  36.702  0.00  0.00    +0.000 C 
ATOM      3  O   UNL     1      17.321  12.460  36.354  0.00  0.00    +0.000 OA
ENDROOT
BRANCH   1  10
ATOM      4  C   UNL     1      12.930  15.172  34.433  0.00  0.00    +0.000 C 
ATOM      5  C   UNL     1      13.734  13.970  34.122  0.00  0.00    +0.000 A 
ATOM      6  C   UNL     1      14.068  13.604  32.843  0.00  0.00    +0.000 A 
ATOM      7  C   UNL     1      14.825  12.475  32.585  0.00  0.00    +0.000 A 
ATOM      8  C   UNL     1      15.251  11.707  33.677  0.00  0.00    +0.000 A 
ATOM      9  C   UNL     1      16.070  10.490  33.476  0.00  0.00    +0.000 C 
ATOM     10  C   UNL     1      14.931  12.051  34.981  0.00  0.00    +0.000 A 
ATOM     11  C   UNL     1      14.171  13.188  35.187  0.00  0.00    +0.000 A 
ENDBRANCH   1  10
BRANCH   2  12
ATOM     12  C   UNL     1      16.982  10.584  37.760  0.00  0.00    +0.000 A 
ATOM     13  C   UNL     1      16.159  10.578  38.916  0.00  0.00    +0.000 A 
ATOM     14  C   UNL     1      16.441   9.742  39.963  0.00  0.00    +0.000 A 
ATOM     15  C   UNL     1      17.515   8.897  39.925  0.00  0.00    +0.000 A 
ATOM     16  F   UNL     1      17.796   8.054  40.982  0.00  0.00    +0.000 F 
ATOM     17  C   UNL     1      18.319   8.895  38.806  0.00  0.00    +0.000 A 
ATOM     18  C   UNL     1      18.061   9.736  37.717  0.00  0.00    +0.000 A 
BRANCH  18  19
ATOM     19  N   UNL     1      18.927   9.705  36.592  0.00  0.00    +0.000 N 
ATOM     20  O   UNL     1      20.049  10.194  36.629  0.00  0.00    +0.000 OA
ATOM     21  O   UNL     1      18.417   9.104  35.440  0.00  0.00    +0.000 OA
ENDBRANCH  18  19
ENDBRANCH   2  12
TORSDOF 3
ENDMDL
MODEL 6
REMARK VINA RESULT:      -7.4      3.213      5.917
REMARK  Name = 
REMARK  3 active torsions:
REMARK  status: ('A' for Active; 'I' for Inactive)
REMARK    1  A    between atoms: C_7  and  N_8
REMARK    2  A    between atoms: C_9  and  C_11
REMARK    3  A    between atoms: C_17  and  N_18
REMARK                            x       y       z     vdW  Elec       q    Type
REMARK                         _______ _______ _______ _____ _____    ______ ____
ROOT
ATOM      1  N   UNL     1      14.580  11.936  35.358  0.00  0.00    +0.000 NA
ATOM      2  C   UNL     1      15.591  12.281  36.310  0.00  0.00    +0.000 C 
ATOM      3  O   UNL     1      16.347  13.209  36.093  0.00  0.00    +0.000 OA
ENDROOT
BRANCH   1  10
ATOM      4  C   UNL     1      15.588  12.507  30.582  0.00  0.00    +0.000 C 
ATOM      5  C   UNL     1      14.888  12.992  31.792  0.00  0.00    +0.000 A 
ATOM      6  C   UNL     1      14.084  14.103  31.797  0.00  0.00    +0.000 A 
ATOM      7  C   UNL     1      13.439  14.527  32.945  0.00  0.00    +0.000 A 
ATOM      8  C   UNL     1      13.628  13.784  34.117  0.00  0.00    +0.000 A 
ATOM      9  C   UNL     1      12.964  14.177  35.381  0.00  0.00    +0.000 C 
ATOM     10  C   UNL     1      14.433  12.656  34.144  0.00  0.00    +0.000 A 
ATOM     11  C   UNL     1      15.056  12.272  32.971  0.00  0.00    +0.000 A 
ENDBRANCH   1  10
BRANCH   2  12
ATOM     12  C   UNL     1      15.620  11.439  37.490  0.00  0.00    +0.000 A 
ATOM     13  C   UNL     1      14.411  11.295  38.219  0.00  0.00    +0.000 A 
ATOM     14  C   UNL     1      14.375  10.535  39.357  0.00  0.00    +0.000 A 
ATOM     15  C   UNL     1      15.494   9.899  39.820  0.00  0.00    +0.000 A 
ATOM     16  F   UNL     1      15.454   9.132  40.968  0.00  0.00    +0.000 F 
ATOM     17  C   UNL     1      16.672  10.032  39.119  0.00  0.00    +0.000 A 
ATOM     18  C   UNL     1      16.745  10.801  37.951  0.00  0.00    +0.000 A 
BRANCH  18  19
ATOM     19  N   UNL     1      17.986  10.917  37.270  0.00  0.00    +0.000 N 
ATOM     20  O   UNL     1      18.844  11.715  37.625  0.00  0.00    +0.000 OA
ATOM     21  O   UNL     1      18.161  10.084  36.163  0.00  0.00    +0.000 OA
ENDBRANCH  18  19
ENDBRANCH   2  12
TORSDOF 3
ENDMDL
MODEL 7
REMARK VINA RESULT:      -7.1      3.169      4.127
REMARK  Name = 
REMARK  3 active torsions:
REMARK  status: ('A' for Active; 'I' for Inactive)
REMARK    1  A    between atoms: C_7  and  N_8
REMARK    2  A    between atoms: C_9  and  C_11
REMARK    3  A    between atoms: C_17  and  N_18
REMARK                            x       y       z     vdW  Elec       q    Type
REMARK                         _______ _______ _______ _____ _____    ______ ____
ROOT
ATOM      1  N   UNL     1      16.842  10.185  35.929  0.00  0.00    +0.000 NA
ATOM      2  C   UNL     1      16.768  11.500  35.369  0.00  0.00    +0.000 C 
ATOM      3  O   UNL     1      17.225  12.451  35.973  0.00  0.00    +0.000 OA
ENDROOT
BRANCH   1  10
ATOM      4  C   UNL     1      16.485   9.787  40.814  0.00  0.00    +0.000 C 
ATOM      5  C   UNL     1      17.331   9.744  39.601  0.00  0.00    +0.000 A 
ATOM      6  C   UNL     1      18.675   9.475  39.637  0.00  0.00    +0.000 A 
ATOM      7  C   UNL     1      19.439   9.438  38.485  0.00  0.00    +0.000 A 
ATOM      8  C   UNL     1      18.797   9.682  37.263  0.00  0.00    +0.000 A 
ATOM      9  C   UNL     1      19.551   9.652  35.989  0.00  0.00    +0.000 C 
ATOM     10  C   UNL     1      17.440   9.955  37.194  0.00  0.00    +0.000 A 
ATOM     11  C   UNL     1      16.720   9.982  38.374  0.00  0.00    +0.000 A 
ENDBRANCH   1  10
BRANCH   2  12
ATOM     12  C   UNL     1      16.111  11.568  34.077  0.00  0.00    +0.000 A 
ATOM     13  C   UNL     1      16.756  10.936  32.983  0.00  0.00    +0.000 A 
ATOM     14  C   UNL     1      16.204  10.985  31.731  0.00  0.00    +0.000 A 
ATOM     15  C   UNL     1      15.025  11.640  31.501  0.00  0.00    +0.000 A 
ATOM     16  F   UNL     1      14.470  11.686  30.238  0.00  0.00    +0.000 F 
ATOM     17  C   UNL     1      14.391  12.256  32.558  0.00  0.00    +0.000 A 
ATOM     18  C   UNL     1      14.928  12.226  33.852  0.00  0.00    +0.000 A 
BRANCH  18  19
ATOM     19  N   UNL     1      14.242  12.887  34.905  0.00  0.00    +0.000 N 
ATOM     20  O   UNL     1      13.985  12.323  35.961  0.00  0.00    +0.000 OA
ATOM     21  O   UNL     1      13.860  14.207  34.658  0.00  0.00    +0.000 OA
ENDBRANCH  18  19
ENDBRANCH   2  12
TORSDOF 3
ENDMDL
MODEL 8
REMARK VINA RESULT:      -7.0      3.438      6.075
REMARK  Name = 
REMARK  3 active torsions:
REMARK  status: ('A' for Active; 'I' for Inactive)
REMARK    1  A    between atoms: C_7  and  N_8
REMARK    2  A    between atoms: C_9  and  C_11
REMARK    3  A    between atoms: C_17  and  N_18
REMARK                            x       y       z     vdW  Elec       q    Type
REMARK                         _______ _______ _______ _____ _____    ______ ____
ROOT
ATOM      1  N   UNL     1      15.659  11.054  35.892  0.00  0.00    +0.000 NA
ATOM      2  C   UNL     1      16.819  11.426  36.642  0.00  0.00    +0.000 C 
ATOM      3  O   UNL     1      17.414  12.454  36.384  0.00  0.00    +0.000 OA
ENDROOT
BRANCH   1  10
ATOM      4  C   UNL     1      15.612  12.284  31.134  0.00  0.00    +0.000 C 
ATOM      5  C   UNL     1      15.103  12.516  32.505  0.00  0.00    +0.000 A 
ATOM      6  C   UNL     1      14.168  13.473  32.803  0.00  0.00    +0.000 A 
ATOM      7  C   UNL     1      13.709  13.662  34.094  0.00  0.00    +0.000 A 
ATOM      8  C   UNL     1      14.230  12.840  35.103  0.00  0.00    +0.000 A 
ATOM      9  C   UNL     1      13.780  12.983  36.506  0.00  0.00    +0.000 C 
ATOM     10  C   UNL     1      15.175  11.863  34.832  0.00  0.00    +0.000 A 
ATOM     11  C   UNL     1      15.602  11.713  33.526  0.00  0.00    +0.000 A 
ENDBRANCH   1  10
BRANCH   2  12
ATOM     12  C   UNL     1      17.194  10.483  37.680  0.00  0.00    +0.000 A 
ATOM     13  C   UNL     1      16.448  10.510  38.886  0.00  0.00    +0.000 A 
ATOM     14  C   UNL     1      16.765   9.666  39.916  0.00  0.00    +0.000 A 
ATOM     15  C   UNL     1      17.802   8.779  39.811  0.00  0.00    +0.000 A 
ATOM     16  F   UNL     1      18.118   7.928  40.851  0.00  0.00    +0.000 F 
ATOM     17  C   UNL     1      18.531   8.745  38.643  0.00  0.00    +0.000 A 
ATOM     18  C   UNL     1      18.234   9.595  37.570  0.00  0.00    +0.000 A 
BRANCH  18  19
ATOM     19  N   UNL     1      19.024   9.528  36.391  0.00  0.00    +0.000 N 
ATOM     20  O   UNL     1      18.554   9.163  35.321  0.00  0.00    +0.000 OA
ATOM     21  O   UNL     1      20.367   9.883  36.529  0.00  0.00    +0.000 OA
ENDBRANCH  18  19
ENDBRANCH   2  12
TORSDOF 3
ENDMDL
MODEL 9
REMARK VINA RESULT:      -6.8      3.012      3.998
REMARK  Name = 
REMARK  3 active torsions:
REMARK  status: ('A' for Active; 'I' for Inactive)
REMARK    1  A    between atoms: C_7  and  N_8
REMARK    2  A    between atoms: C_9  and  C_11
REMARK    3  A    between atoms: C_17  and  N_18
REMARK                            x       y       z     vdW  Elec       q    Type
REMARK                         _______ _______ _______ _____ _____    ______ ____
ROOT
ATOM      1  N   UNL     1      17.266  10.159  35.967  0.00  0.00    +0.000 NA
ATOM      2  C   UNL     1      17.025  11.428  35.352  0.00  0.00    +0.000 C 
ATOM      3  O   UNL     1      17.412  12.451  35.883  0.00  0.00    +0.000 OA
ENDROOT
BRANCH   1  10
ATOM      4  C   UNL     1      21.436   9.571  38.501  0.00  0.00    +0.000 C 
ATOM      5  C   UNL     1      19.970   9.775  38.509  0.00  0.00    +0.000 A 
ATOM      6  C   UNL     1      19.237   9.888  39.663  0.00  0.00    +0.000 A 
ATOM      7  C   UNL     1      17.868  10.084  39.637  0.00  0.00    +0.000 A 
ATOM      8  C   UNL     1      17.240  10.166  38.387  0.00  0.00    +0.000 A 
ATOM      9  C   UNL     1      15.779  10.381  38.285  0.00  0.00    +0.000 C 
ATOM     10  C   UNL     1      17.953  10.057  37.204  0.00  0.00    +0.000 A 
ATOM     11  C   UNL     1      19.320   9.862  37.282  0.00  0.00    +0.000 A 
ENDBRANCH   1  10
BRANCH   2  12
ATOM     12  C   UNL     1      16.295  11.362  34.100  0.00  0.00    +0.000 A 
ATOM     13  C   UNL     1      16.910  10.678  33.021  0.00  0.00    +0.000 A 
ATOM     14  C   UNL     1      16.288  10.601  31.804  0.00  0.00    +0.000 A 
ATOM     15  C   UNL     1      15.064  11.177  31.597  0.00  0.00    +0.000 A 
ATOM     16  F   UNL     1      14.438  11.096  30.368  0.00  0.00    +0.000 F 
ATOM     17  C   UNL     1      14.458  11.842  32.639  0.00  0.00    +0.000 A 
ATOM     18  C   UNL     1      15.066  11.941  33.897  0.00  0.00    +0.000 A 
BRANCH  18  19
ATOM     19  N   UNL     1      14.406  12.648  34.936  0.00  0.00    +0.000 N 
ATOM     20  O   UNL     1      14.322  13.870  34.933  0.00  0.00    +0.000 OA
ATOM     21  O   UNL     1      13.877  11.872  35.969  0.00  0.00    +0.000 OA
ENDBRANCH  18  19
ENDBRANCH   2  12
TORSDOF 3
ENDMDL
MODEL 10
REMARK VINA RESULT:      -6.7      1.857      2.659
REMARK  Name = 
REMARK  3 active torsions:
REMARK  status: ('A' for Active; 'I' for Inactive)
REMARK    1  A    between atoms: C_7  and  N_8
REMARK    2  A    between atoms: C_9  and  C_11
REMARK    3  A    between atoms: C_17  and  N_18
REMARK                            x       y       z     vdW  Elec       q    Type
REMARK                         _______ _______ _______ _____ _____    ______ ____
ROOT
ATOM      1  N   UNL     1      18.392  10.883  37.758  0.00  0.00    +0.000 NA
ATOM      2  C   UNL     1      17.441  10.186  36.948  0.00  0.00    +0.000 C 
ATOM      3  O   UNL     1      17.736   9.125  36.430  0.00  0.00    +0.000 OA
ENDROOT
BRANCH   1  10
ATOM      4  C   UNL     1      22.946   9.960  36.155  0.00  0.00    +0.000 C 
ATOM      5  C   UNL     1      21.952   9.886  37.249  0.00  0.00    +0.000 A 
ATOM      6  C   UNL     1      22.233   9.352  38.480  0.00  0.00    +0.000 A 
ATOM      7  C   UNL     1      21.283   9.302  39.484  0.00  0.00    +0.000 A 
ATOM      8  C   UNL     1      20.010   9.818  39.209  0.00  0.00    +0.000 A 
ATOM      9  C   UNL     1      18.946   9.803  40.239  0.00  0.00    +0.000 C 
ATOM     10  C   UNL     1      19.695  10.366  37.976  0.00  0.00    +0.000 A 
ATOM     11  C   UNL     1      20.679  10.393  37.005  0.00  0.00    +0.000 A 
ENDBRANCH   1  10
BRANCH   2  12
ATOM     12  C   UNL     1      16.162  10.855  36.810  0.00  0.00    +0.000 A 
ATOM     13  C   UNL     1      15.362  10.982  37.975  0.00  0.00    +0.000 A 
ATOM     14  C   UNL     1      14.133  11.580  37.910  0.00  0.00    +0.000 A 
ATOM     15  C   UNL     1      13.643  12.067  36.730  0.00  0.00    +0.000 A 
ATOM     16  F   UNL     1      12.403  12.671  36.668  0.00  0.00    +0.000 F 
ATOM     17  C   UNL     1      14.412  11.949  35.593  0.00  0.00    +0.000 A 
ATOM     18  C   UNL     1      15.675  11.343  35.623  0.00  0.00    +0.000 A 
BRANCH  18  19
ATOM     19  N   UNL     1      16.424  11.236  34.421  0.00  0.00    +0.000 N 
ATOM     20  O   UNL     1      17.389  11.954  34.197  0.00  0.00    +0.000 OA
ATOM     21  O   UNL     1      15.983  10.280  33.505  0.00  0.00    +0.000 OA
ENDBRANCH  18  19
ENDBRANCH   2  12
TORSDOF 3
ENDMDL
