MODEL 1
REMARK VINA RESULT:      -9.4      0.000      0.000
REMARK  Name = 
REMARK  0 active torsions:
REMARK  status: ('A' for Active; 'I' for Inactive)
REMARK                            x       y       z     vdW  Elec       q    Type
REMARK                         _______ _______ _______ _____ _____    ______ ____
ROOT
ATOM      1  C   UNL     1      15.651  11.963  30.968  0.00  0.00    +0.000 C 
ATOM      2  C   UNL     1      15.259  12.287  32.379  0.00  0.00    +0.000 C 
ATOM      3  C   UNL     1      16.328  11.241  32.268  0.00  0.00    +0.000 C 
ATOM      4  C   UNL     1      16.903  10.622  33.507  0.00  0.00    +0.000 C 
ATOM      5  C   UNL     1      16.409  11.049  34.858  0.00  0.00    +0.000 C 
ATOM      6  C   UNL     1      15.340  12.095  34.969  0.00  0.00    +0.000 C 
ATOM      7  C   UNL     1      14.845  12.522  36.318  0.00  0.00    +0.000 C 
ATOM      8  C   UNL     1      15.420  11.903  37.559  0.00  0.00    +0.000 C 
ATOM      9  C   UNL     1      16.491  10.857  37.448  0.00  0.00    +0.000 C 
ATOM     10  C   UNL     1      17.065  10.239  38.687  0.00  0.00    +0.000 C 
ATOM     11  C   UNL     1      18.135   9.193  38.577  0.00  0.00    +0.000 C 
ATOM     12  O   UNL     1      18.710   8.574  39.816  0.00  0.00    +0.000 OA
ATOM     13  C   UNL     1      18.630   8.765  37.226  0.00  0.00    +0.000 C 
ATOM     14  C   UNL     1      18.054   9.385  35.986  0.00  0.00    +0.000 C 
ATOM     15  C   UNL     1      16.985  10.430  36.097  0.00  0.00    +0.000 C 
ATOM     16  C   UNL     1      17.479  10.003  34.747  0.00  0.00    +0.000 C 
ATOM     17  C   UNL     1      14.764  12.714  33.729  0.00  0.00    +0.000 C 
ATOM     18  C   UNL     1      13.709  13.759  33.527  0.00  0.00    +0.000 C 
ATOM     19  C   UNL     1      13.550  13.979  32.052  0.00  0.00    +0.000 C 
ATOM     20  C   UNL     1      14.508  13.069  31.341  0.00  0.00    +0.000 C 
ATOM     21  O   UNL     1      14.685  12.960  29.856  0.00  0.00    +0.000 OA
ENDROOT
TORSDOF 0
ENDMDL
MODEL 2
REMARK VINA RESULT:      -8.6     20.971     22.600
REMARK  Name = 
REMARK  0 active torsions:
REMARK  status: ('A' for Active; 'I' for Inactive)
REMARK                            x       y       z     vdW  Elec       q    Type
REMARK                         _______ _______ _______ _____ _____    ______ ____
ROOT
ATOM      1  C   UNL     1      18.595  -5.660  26.360  0.00  0.00    +0.000 C 
ATOM      2  C   UNL     1      19.316  -6.974  26.409  0.00  0.00    +0.000 C 
ATOM      3  C   UNL     1      20.057  -5.899  25.670  0.00  0.00    +0.000 C 
ATOM      4  C   UNL     1      21.396  -6.192  25.062  0.00  0.00    +0.000 C 
ATOM      5  C   UNL     1      21.995  -7.561  25.193  0.00  0.00    +0.000 C 
ATOM      6  C   UNL     1      21.256  -8.636  25.932  0.00  0.00    +0.000 C 
ATOM      7  C   UNL     1      21.854 -10.005  26.064  0.00  0.00    +0.000 C 
ATOM      8  C   UNL     1      23.194 -10.299  25.456  0.00  0.00    +0.000 C 
ATOM      9  C   UNL     1      23.934  -9.224  24.716  0.00  0.00    +0.000 C 
ATOM     10  C   UNL     1      25.273  -9.518  24.108  0.00  0.00    +0.000 C 
ATOM     11  C   UNL     1      26.014  -8.443  23.369  0.00  0.00    +0.000 C 
ATOM     12  O   UNL     1      27.353  -8.737  22.761  0.00  0.00    +0.000 OA
ATOM     13  C   UNL     1      25.414  -7.074  23.237  0.00  0.00    +0.000 C 
ATOM     14  C   UNL     1      24.074  -6.780  23.845  0.00  0.00    +0.000 C 
ATOM     15  C   UNL     1      23.335  -7.855  24.585  0.00  0.00    +0.000 C 
ATOM     16  C   UNL     1      22.736  -6.486  24.453  0.00  0.00    +0.000 C 
ATOM     17  C   UNL     1      19.916  -8.342  26.541  0.00  0.00    +0.000 C 
ATOM     18  C   UNL     1      18.960  -9.194  27.321  0.00  0.00    +0.000 C 
ATOM     19  C   UNL     1      17.769  -8.352  27.672  0.00  0.00    +0.000 C 
ATOM     20  C   UNL     1      17.989  -6.979  27.109  0.00  0.00    +0.000 C 
ATOM     21  O   UNL     1      17.048  -5.817  27.224  0.00  0.00    +0.000 OA
ENDROOT
TORSDOF 0
ENDMDL
MODEL 3
REMARK VINA RESULT:      -8.1     17.907     20.095
REMARK  Name = 
REMARK  0 active torsions:
REMARK  status: ('A' for Active; 'I' for Inactive)
REMARK                            x       y       z     vdW  Elec       q    Type
REMARK                         _______ _______ _______ _____ _____    ______ ____
ROOT
ATOM      1  C   UNL     1      29.085  22.530  30.917  0.00  0.00    +0.000 C 
ATOM      2  C   UNL     1      29.800  22.558  29.599  0.00  0.00    +0.000 C 
ATOM      3  C   UNL     1      28.310  22.694  29.487  0.00  0.00    +0.000 C 
ATOM      4  C   UNL     1      27.670  22.841  28.140  0.00  0.00    +0.000 C 
ATOM      5  C   UNL     1      28.518  22.853  26.903  0.00  0.00    +0.000 C 
ATOM      6  C   UNL     1      30.008  22.717  27.014  0.00  0.00    +0.000 C 
ATOM      7  C   UNL     1      30.857  22.729  25.778  0.00  0.00    +0.000 C 
ATOM      8  C   UNL     1      30.216  22.876  24.429  0.00  0.00    +0.000 C 
ATOM      9  C   UNL     1      28.725  23.011  24.318  0.00  0.00    +0.000 C 
ATOM     10  C   UNL     1      28.086  23.158  22.969  0.00  0.00    +0.000 C 
ATOM     11  C   UNL     1      26.596  23.294  22.858  0.00  0.00    +0.000 C 
ATOM     12  O   UNL     1      25.955  23.441  21.510  0.00  0.00    +0.000 OA
ATOM     13  C   UNL     1      25.746  23.282  24.095  0.00  0.00    +0.000 C 
ATOM     14  C   UNL     1      26.387  23.135  25.443  0.00  0.00    +0.000 C 
ATOM     15  C   UNL     1      27.877  23.000  25.554  0.00  0.00    +0.000 C 
ATOM     16  C   UNL     1      27.028  22.988  26.791  0.00  0.00    +0.000 C 
ATOM     17  C   UNL     1      30.649  22.570  28.362  0.00  0.00    +0.000 C 
ATOM     18  C   UNL     1      32.081  22.419  28.782  0.00  0.00    +0.000 C 
ATOM     19  C   UNL     1      32.118  22.313  30.277  0.00  0.00    +0.000 C 
ATOM     20  C   UNL     1      30.707  22.400  30.783  0.00  0.00    +0.000 C 
ATOM     21  O   UNL     1      30.281  22.338  32.219  0.00  0.00    +0.000 OA
ENDROOT
TORSDOF 0
ENDMDL
MODEL 4
REMARK VINA RESULT:      -8.1     18.028     19.012
REMARK  Name = 
REMARK  0 active torsions:
REMARK  status: ('A' for Active; 'I' for Inactive)
REMARK                            x       y       z     vdW  Elec       q    Type
REMARK                         _______ _______ _______ _____ _____    ______ ____
ROOT
ATOM      1  C   UNL     1      28.674  23.100  23.158  0.00  0.00    +0.000 C 
ATOM      2  C   UNL     1      28.053  23.106  24.524  0.00  0.00    +0.000 C 
ATOM      3  C   UNL     1      29.535  22.869  24.528  0.00  0.00    +0.000 C 
ATOM      4  C   UNL     1      30.258  22.665  25.826  0.00  0.00    +0.000 C 
ATOM      5  C   UNL     1      29.500  22.697  27.120  0.00  0.00    +0.000 C 
ATOM      6  C   UNL     1      28.019  22.934  27.116  0.00  0.00    +0.000 C 
ATOM      7  C   UNL     1      27.260  22.966  28.409  0.00  0.00    +0.000 C 
ATOM      8  C   UNL     1      27.983  22.762  29.708  0.00  0.00    +0.000 C 
ATOM      9  C   UNL     1      29.465  22.525  29.713  0.00  0.00    +0.000 C 
ATOM     10  C   UNL     1      30.187  22.321  31.011  0.00  0.00    +0.000 C 
ATOM     11  C   UNL     1      31.669  22.084  31.016  0.00  0.00    +0.000 C 
ATOM     12  O   UNL     1      32.392  21.880  32.313  0.00  0.00    +0.000 OA
ATOM     13  C   UNL     1      32.427  22.052  29.721  0.00  0.00    +0.000 C 
ATOM     14  C   UNL     1      31.704  22.256  28.422  0.00  0.00    +0.000 C 
ATOM     15  C   UNL     1      30.223  22.493  28.419  0.00  0.00    +0.000 C 
ATOM     16  C   UNL     1      30.981  22.461  27.125  0.00  0.00    +0.000 C 
ATOM     17  C   UNL     1      27.295  23.138  25.818  0.00  0.00    +0.000 C 
ATOM     18  C   UNL     1      25.851  23.390  25.503  0.00  0.00    +0.000 C 
ATOM     19  C   UNL     1      25.716  23.513  24.014  0.00  0.00    +0.000 C 
ATOM     20  C   UNL     1      27.077  23.338  23.408  0.00  0.00    +0.000 C 
ATOM     21  O   UNL     1      27.405  23.386  21.946  0.00  0.00    +0.000 OA
ENDROOT
TORSDOF 0
ENDMDL
MODEL 5
REMARK VINA RESULT:      -7.9      1.730      7.187
REMARK  Name = 
REMARK  0 active torsions:
REMARK  status: ('A' for Active; 'I' for Inactive)
REMARK                            x       y       z     vdW  Elec       q    Type
REMARK                         _______ _______ _______ _____ _____    ______ ____
ROOT
ATOM      1  C   UNL     1      19.239   8.150  40.255  0.00  0.00    +0.000 C 
ATOM      2  C   UNL     1      17.974   8.922  40.023  0.00  0.00    +0.000 C 
ATOM      3  C   UNL     1      18.821   8.756  38.796  0.00  0.00    +0.000 C 
ATOM      4  C   UNL     1      18.371   9.341  37.490  0.00  0.00    +0.000 C 
ATOM      5  C   UNL     1      17.076  10.092  37.411  0.00  0.00    +0.000 C 
ATOM      6  C   UNL     1      16.229  10.259  38.637  0.00  0.00    +0.000 C 
ATOM      7  C   UNL     1      14.934  11.010  38.559  0.00  0.00    +0.000 C 
ATOM      8  C   UNL     1      14.483  11.595  37.253  0.00  0.00    +0.000 C 
ATOM      9  C   UNL     1      15.331  11.429  36.025  0.00  0.00    +0.000 C 
ATOM     10  C   UNL     1      14.881  12.014  34.719  0.00  0.00    +0.000 C 
ATOM     11  C   UNL     1      15.727  11.847  33.492  0.00  0.00    +0.000 C 
ATOM     12  O   UNL     1      15.278  12.432  32.186  0.00  0.00    +0.000 OA
ATOM     13  C   UNL     1      17.024  11.096  33.571  0.00  0.00    +0.000 C 
ATOM     14  C   UNL     1      17.473  10.511  34.877  0.00  0.00    +0.000 C 
ATOM     15  C   UNL     1      16.626  10.677  36.104  0.00  0.00    +0.000 C 
ATOM     16  C   UNL     1      17.922   9.926  36.183  0.00  0.00    +0.000 C 
ATOM     17  C   UNL     1      16.678   9.674  39.944  0.00  0.00    +0.000 C 
ATOM     18  C   UNL     1      16.060   9.676  41.310  0.00  0.00    +0.000 C 
ATOM     19  C   UNL     1      16.973   8.926  42.234  0.00  0.00    +0.000 C 
ATOM     20  C   UNL     1      18.157   8.460  41.438  0.00  0.00    +0.000 C 
ATOM     21  O   UNL     1      19.318   7.671  41.965  0.00  0.00    +0.000 OA
ENDROOT
TORSDOF 0
ENDMDL
MODEL 6
REMARK VINA RESULT:      -7.8     18.747     20.719
REMARK  Name = 
REMARK  0 active torsions:
REMARK  status: ('A' for Active; 'I' for Inactive)
REMARK                            x       y       z     vdW  Elec       q    Type
REMARK                         _______ _______ _______ _____ _____    ______ ____
ROOT
ATOM      1  C   UNL     1      33.932   4.751  37.943  0.00  0.00    +0.000 C 
ATOM      2  C   UNL     1      33.888   4.243  36.532  0.00  0.00    +0.000 C 
ATOM      3  C   UNL     1      33.926   3.160  37.569  0.00  0.00    +0.000 C 
ATOM      4  C   UNL     1      33.918   1.720  37.151  0.00  0.00    +0.000 C 
ATOM      5  C   UNL     1      33.872   1.362  35.695  0.00  0.00    +0.000 C 
ATOM      6  C   UNL     1      33.834   2.444  34.658  0.00  0.00    +0.000 C 
ATOM      7  C   UNL     1      33.788   2.087  33.202  0.00  0.00    +0.000 C 
ATOM      8  C   UNL     1      33.780   0.647  32.782  0.00  0.00    +0.000 C 
ATOM      9  C   UNL     1      33.818  -0.437  33.821  0.00  0.00    +0.000 C 
ATOM     10  C   UNL     1      33.810  -1.876  33.401  0.00  0.00    +0.000 C 
ATOM     11  C   UNL     1      33.849  -2.960  34.439  0.00  0.00    +0.000 C 
ATOM     12  O   UNL     1      33.841  -4.399  34.020  0.00  0.00    +0.000 OA
ATOM     13  C   UNL     1      33.895  -2.602  35.895  0.00  0.00    +0.000 C 
ATOM     14  C   UNL     1      33.903  -1.161  36.314  0.00  0.00    +0.000 C 
ATOM     15  C   UNL     1      33.864  -0.079  35.277  0.00  0.00    +0.000 C 
ATOM     16  C   UNL     1      33.911   0.279  36.732  0.00  0.00    +0.000 C 
ATOM     17  C   UNL     1      33.842   3.885  35.076  0.00  0.00    +0.000 C 
ATOM     18  C   UNL     1      33.811   5.159  34.287  0.00  0.00    +0.000 C 
ATOM     19  C   UNL     1      33.838   6.305  35.254  0.00  0.00    +0.000 C 
ATOM     20  C   UNL     1      33.886   5.739  36.643  0.00  0.00    +0.000 C 
ATOM     21  O   UNL     1      33.924   6.529  37.917  0.00  0.00    +0.000 OA
ENDROOT
TORSDOF 0
ENDMDL
MODEL 7
REMARK VINA RESULT:      -7.8     18.096     20.055
REMARK  Name = 
REMARK  0 active torsions:
REMARK  status: ('A' for Active; 'I' for Inactive)
REMARK                            x       y       z     vdW  Elec       q    Type
REMARK                         _______ _______ _______ _____ _____    ______ ____
ROOT
ATOM      1  C   UNL     1      32.353  21.968  29.613  0.00  0.00    +0.000 C 
ATOM      2  C   UNL     1      30.894  22.289  29.472  0.00  0.00    +0.000 C 
ATOM      3  C   UNL     1      31.628  22.198  28.167  0.00  0.00    +0.000 C 
ATOM      4  C   UNL     1      30.895  22.423  26.878  0.00  0.00    +0.000 C 
ATOM      5  C   UNL     1      29.429  22.738  26.893  0.00  0.00    +0.000 C 
ATOM      6  C   UNL     1      28.695  22.829  28.198  0.00  0.00    +0.000 C 
ATOM      7  C   UNL     1      27.229  23.145  28.215  0.00  0.00    +0.000 C 
ATOM      8  C   UNL     1      26.496  23.369  26.925  0.00  0.00    +0.000 C 
ATOM      9  C   UNL     1      27.230  23.278  25.619  0.00  0.00    +0.000 C 
ATOM     10  C   UNL     1      26.496  23.503  24.331  0.00  0.00    +0.000 C 
ATOM     11  C   UNL     1      27.230  23.412  23.025  0.00  0.00    +0.000 C 
ATOM     12  O   UNL     1      26.497  23.636  21.736  0.00  0.00    +0.000 OA
ATOM     13  C   UNL     1      28.697  23.096  23.009  0.00  0.00    +0.000 C 
ATOM     14  C   UNL     1      29.430  22.872  24.299  0.00  0.00    +0.000 C 
ATOM     15  C   UNL     1      28.696  22.963  25.603  0.00  0.00    +0.000 C 
ATOM     16  C   UNL     1      30.162  22.647  25.588  0.00  0.00    +0.000 C 
ATOM     17  C   UNL     1      29.428  22.605  29.488  0.00  0.00    +0.000 C 
ATOM     18  C   UNL     1      28.975  22.629  30.917  0.00  0.00    +0.000 C 
ATOM     19  C   UNL     1      30.160  22.329  31.785  0.00  0.00    +0.000 C 
ATOM     20  C   UNL     1      31.348  22.118  30.892  0.00  0.00    +0.000 C 
ATOM     21  O   UNL     1      32.742  21.795  31.340  0.00  0.00    +0.000 OA
ENDROOT
TORSDOF 0
ENDMDL
MODEL 8
REMARK VINA RESULT:      -7.6     18.794     20.154
REMARK  Name = 
REMARK  0 active torsions:
REMARK  status: ('A' for Active; 'I' for Inactive)
REMARK                            x       y       z     vdW  Elec       q    Type
REMARK                         _______ _______ _______ _____ _____    ______ ____
ROOT
ATOM      1  C   UNL     1      34.130   7.073  35.374  0.00  0.00    +0.000 C 
ATOM      2  C   UNL     1      34.117   5.846  36.237  0.00  0.00    +0.000 C 
ATOM      3  C   UNL     1      34.022   5.559  34.768  0.00  0.00    +0.000 C 
ATOM      4  C   UNL     1      33.926   4.143  34.285  0.00  0.00    +0.000 C 
ATOM      5  C   UNL     1      33.925   3.012  35.270  0.00  0.00    +0.000 C 
ATOM      6  C   UNL     1      34.019   3.298  36.740  0.00  0.00    +0.000 C 
ATOM      7  C   UNL     1      34.017   2.169  37.726  0.00  0.00    +0.000 C 
ATOM      8  C   UNL     1      33.921   0.751  37.243  0.00  0.00    +0.000 C 
ATOM      9  C   UNL     1      33.827   0.465  35.773  0.00  0.00    +0.000 C 
ATOM     10  C   UNL     1      33.731  -0.952  35.291  0.00  0.00    +0.000 C 
ATOM     11  C   UNL     1      33.637  -1.239  33.821  0.00  0.00    +0.000 C 
ATOM     12  O   UNL     1      33.541  -2.655  33.338  0.00  0.00    +0.000 OA
ATOM     13  C   UNL     1      33.638  -0.108  32.834  0.00  0.00    +0.000 C 
ATOM     14  C   UNL     1      33.734   1.309  33.318  0.00  0.00    +0.000 C 
ATOM     15  C   UNL     1      33.829   1.595  34.787  0.00  0.00    +0.000 C 
ATOM     16  C   UNL     1      33.830   2.725  33.801  0.00  0.00    +0.000 C 
ATOM     17  C   UNL     1      34.115   4.715  37.223  0.00  0.00    +0.000 C 
ATOM     18  C   UNL     1      34.219   5.301  38.600  0.00  0.00    +0.000 C 
ATOM     19  C   UNL     1      34.285   6.793  38.465  0.00  0.00    +0.000 C 
ATOM     20  C   UNL     1      34.222   7.131  37.004  0.00  0.00    +0.000 C 
ATOM     21  O   UNL     1      34.257   8.509  36.415  0.00  0.00    +0.000 OA
ENDROOT
TORSDOF 0
ENDMDL
MODEL 9
REMARK VINA RESULT:      -7.5     17.986     19.275
REMARK  Name = 
REMARK  0 active torsions:
REMARK  status: ('A' for Active; 'I' for Inactive)
REMARK                            x       y       z     vdW  Elec       q    Type
REMARK                         _______ _______ _______ _____ _____    ______ ____
ROOT
ATOM      1  C   UNL     1      26.059  23.285  23.402  0.00  0.00    +0.000 C 
ATOM      2  C   UNL     1      27.472  23.375  23.897  0.00  0.00    +0.000 C 
ATOM      3  C   UNL     1      26.469  23.065  24.969  0.00  0.00    +0.000 C 
ATOM      4  C   UNL     1      26.920  22.876  26.386  0.00  0.00    +0.000 C 
ATOM      5  C   UNL     1      28.375  22.996  26.733  0.00  0.00    +0.000 C 
ATOM      6  C   UNL     1      29.378  23.305  25.662  0.00  0.00    +0.000 C 
ATOM      7  C   UNL     1      30.832  23.426  26.007  0.00  0.00    +0.000 C 
ATOM      8  C   UNL     1      31.284  23.236  27.426  0.00  0.00    +0.000 C 
ATOM      9  C   UNL     1      30.281  22.927  28.498  0.00  0.00    +0.000 C 
ATOM     10  C   UNL     1      30.733  22.737  29.915  0.00  0.00    +0.000 C 
ATOM     11  C   UNL     1      29.730  22.428  30.987  0.00  0.00    +0.000 C 
ATOM     12  O   UNL     1      30.181  22.239  32.404  0.00  0.00    +0.000 OA
ATOM     13  C   UNL     1      28.274  22.308  30.640  0.00  0.00    +0.000 C 
ATOM     14  C   UNL     1      27.823  22.497  29.222  0.00  0.00    +0.000 C 
ATOM     15  C   UNL     1      28.826  22.807  28.151  0.00  0.00    +0.000 C 
ATOM     16  C   UNL     1      27.372  22.687  27.805  0.00  0.00    +0.000 C 
ATOM     17  C   UNL     1      28.926  23.495  24.243  0.00  0.00    +0.000 C 
ATOM     18  C   UNL     1      29.679  23.806  22.984  0.00  0.00    +0.000 C 
ATOM     19  C   UNL     1      28.690  23.878  21.859  0.00  0.00    +0.000 C 
ATOM     20  C   UNL     1      27.325  23.611  22.423  0.00  0.00    +0.000 C 
ATOM     21  O   UNL     1      26.041  23.586  21.649  0.00  0.00    +0.000 OA
ENDROOT
TORSDOF 0
ENDMDL
MODEL 10
REMARK VINA RESULT:      -7.2     19.683     21.098
REMARK  Name = 
REMARK  0 active torsions:
REMARK  status: ('A' for Active; 'I' for Inactive)
REMARK                            x       y       z     vdW  Elec       q    Type
REMARK                         _______ _______ _______ _____ _____    ______ ____
ROOT
ATOM      1  C   UNL     1      27.607  23.740  21.962  0.00  0.00    +0.000 C 
ATOM      2  C   UNL     1      27.743  23.528  23.441  0.00  0.00    +0.000 C 
ATOM      3  C   UNL     1      29.019  23.931  22.763  0.00  0.00    +0.000 C 
ATOM      4  C   UNL     1      30.277  24.086  23.565  0.00  0.00    +0.000 C 
ATOM      5  C   UNL     1      30.260  23.839  25.044  0.00  0.00    +0.000 C 
ATOM      6  C   UNL     1      28.984  23.436  25.722  0.00  0.00    +0.000 C 
ATOM      7  C   UNL     1      28.966  23.189  27.201  0.00  0.00    +0.000 C 
ATOM      8  C   UNL     1      30.224  23.344  28.003  0.00  0.00    +0.000 C 
ATOM      9  C   UNL     1      31.501  23.747  27.325  0.00  0.00    +0.000 C 
ATOM     10  C   UNL     1      32.759  23.903  28.127  0.00  0.00    +0.000 C 
ATOM     11  C   UNL     1      34.035  24.305  27.449  0.00  0.00    +0.000 C 
ATOM     12  O   UNL     1      35.293  24.461  28.250  0.00  0.00    +0.000 OA
ATOM     13  C   UNL     1      34.053  24.553  25.969  0.00  0.00    +0.000 C 
ATOM     14  C   UNL     1      32.794  24.397  25.167  0.00  0.00    +0.000 C 
ATOM     15  C   UNL     1      31.518  23.995  25.846  0.00  0.00    +0.000 C 
ATOM     16  C   UNL     1      31.536  24.242  24.366  0.00  0.00    +0.000 C 
ATOM     17  C   UNL     1      27.725  23.281  24.920  0.00  0.00    +0.000 C 
ATOM     18  C   UNL     1      26.329  22.898  25.310  0.00  0.00    +0.000 C 
ATOM     19  C   UNL     1      25.483  22.908  24.072  0.00  0.00    +0.000 C 
ATOM     20  C   UNL     1      26.357  23.298  22.916  0.00  0.00    +0.000 C 
ATOM     21  O   UNL     1      25.921  23.433  21.487  0.00  0.00    +0.000 OA
ENDROOT
TORSDOF 0
ENDMDL
