MODEL 1
REMARK VINA RESULT:      -5.6      0.000      0.000
REMARK  Name = 
REMARK  3 active torsions:
REMARK  status: ('A' for Active; 'I' for Inactive)
REMARK    1  A    between atoms: O_2  and  C_3
REMARK    2  A    between atoms: C_8  and  O_9
REMARK    3  A    between atoms: C_11  and  C_12
REMARK                            x       y       z     vdW  Elec       q    Type
REMARK                         _______ _______ _______ _____ _____    ______ ____
ROOT
ATOM      1  C   UNL     1      28.745  23.207  23.746  0.00  0.00    +0.000 A 
ATOM      2  C   UNL     1      28.848  22.598  24.971  0.00  0.00    +0.000 A 
ATOM      3  C   UNL     1      30.000  22.740  25.766  0.00  0.00    +0.000 A 
ATOM      4  C   UNL     1      31.005  23.497  25.279  0.00  0.00    +0.000 A 
ATOM      5  C   UNL     1      30.942  24.108  24.091  0.00  0.00    +0.000 A 
ATOM      6  C   UNL     1      29.811  23.966  23.316  0.00  0.00    +0.000 A 
ATOM      7  C   UNL     1      32.337  23.573  26.147  0.00  0.00    +0.000 C 
ATOM      8  C   UNL     1      31.626  23.830  27.596  0.00  0.00    +0.000 C 
ATOM      9  C   UNL     1      31.167  22.407  27.847  0.00  0.00    +0.000 C 
ATOM     10  O   UNL     1      31.787  21.692  28.603  0.00  0.00    +0.000 OA
ATOM     11  N   UNL     1      29.987  22.121  27.093  0.00  0.00    +0.000 NA
ENDROOT
BRANCH   7  12
ATOM     12  C   UNL     1      32.774  25.048  25.869  0.00  0.00    +0.000 A 
ATOM     13  S   UNL     1      32.152  26.532  26.326  0.00  0.00    +0.000 S 
ATOM     14  C   UNL     1      33.300  27.569  25.546  0.00  0.00    +0.000 A 
ATOM     15  C   UNL     1      34.118  26.675  24.962  0.00  0.00    +0.000 A 
ATOM     16  C   UNL     1      33.856  25.350  25.121  0.00  0.00    +0.000 A 
ATOM     17  C   UNL     1      34.779  24.340  24.464  0.00  0.00    +0.000 C 
ENDBRANCH   7  12
BRANCH   1  19
ATOM     18  C   UNL     1      26.336  23.443  23.404  0.00  0.00    +0.000 C 
ATOM     19  O   UNL     1      27.630  23.081  22.953  0.00  0.00    +0.000 OA
ENDBRANCH   1  19
BRANCH   6  20
ATOM     20  O   UNL     1      29.770  24.618  22.071  0.00  0.00    +0.000 OA
ATOM     21  C   UNL     1      29.341  25.950  21.978  0.00  0.00    +0.000 C 
ENDBRANCH   6  20
TORSDOF 3
ENDMDL
MODEL 2
REMARK VINA RESULT:      -5.6     33.885     35.755
REMARK  Name = 
REMARK  3 active torsions:
REMARK  status: ('A' for Active; 'I' for Inactive)
REMARK    1  A    between atoms: O_2  and  C_3
REMARK    2  A    between atoms: C_8  and  O_9
REMARK    3  A    between atoms: C_11  and  C_12
REMARK                            x       y       z     vdW  Elec       q    Type
REMARK                         _______ _______ _______ _____ _____    ______ ____
ROOT
ATOM      1  C   UNL     1      14.448  -9.775  26.207  0.00  0.00    +0.000 A 
ATOM      2  C   UNL     1      15.087 -10.440  27.222  0.00  0.00    +0.000 A 
ATOM      3  C   UNL     1      16.446 -10.211  27.508  0.00  0.00    +0.000 A 
ATOM      4  C   UNL     1      17.101  -9.312  26.744  0.00  0.00    +0.000 A 
ATOM      5  C   UNL     1      16.512  -8.642  25.747  0.00  0.00    +0.000 A 
ATOM      6  C   UNL     1      15.181  -8.870  25.471  0.00  0.00    +0.000 A 
ATOM      7  C   UNL     1      18.658  -9.131  27.019  0.00  0.00    +0.000 C 
ATOM      8  C   UNL     1      18.574  -9.049  28.648  0.00  0.00    +0.000 C 
ATOM      9  C   UNL     1      18.377 -10.529  28.912  0.00  0.00    +0.000 C 
ATOM     10  O   UNL     1      19.307 -11.209  29.283  0.00  0.00    +0.000 OA
ATOM     11  N   UNL     1      17.022 -10.906  28.660  0.00  0.00    +0.000 NA
ENDROOT
BRANCH   7  12
ATOM     12  C   UNL     1      18.819  -7.601  26.744  0.00  0.00    +0.000 A 
ATOM     13  S   UNL     1      17.965  -6.252  27.243  0.00  0.00    +0.000 S 
ATOM     14  C   UNL     1      18.883  -5.024  26.435  0.00  0.00    +0.000 A 
ATOM     15  C   UNL     1      19.823  -5.757  25.810  0.00  0.00    +0.000 A 
ATOM     16  C   UNL     1      19.803  -7.109  25.961  0.00  0.00    +0.000 A 
ATOM     17  C   UNL     1      20.862  -7.937  25.257  0.00  0.00    +0.000 C 
ENDBRANCH   7  12
BRANCH   1  19
ATOM     18  C   UNL     1      12.081  -9.271  26.555  0.00  0.00    +0.000 C 
ATOM     19  O   UNL     1      13.122  -9.984  25.911  0.00  0.00    +0.000 OA
ENDBRANCH   1  19
BRANCH   6  20
ATOM     20  O   UNL     1      14.586  -8.153  24.418  0.00  0.00    +0.000 OA
ATOM     21  C   UNL     1      14.576  -8.676  23.117  0.00  0.00    +0.000 C 
ENDBRANCH   6  20
TORSDOF 3
ENDMDL
MODEL 3
REMARK VINA RESULT:      -5.6     33.918     35.994
REMARK  Name = 
REMARK  3 active torsions:
REMARK  status: ('A' for Active; 'I' for Inactive)
REMARK    1  A    between atoms: O_2  and  C_3
REMARK    2  A    between atoms: C_8  and  O_9
REMARK    3  A    between atoms: C_11  and  C_12
REMARK                            x       y       z     vdW  Elec       q    Type
REMARK                         _______ _______ _______ _____ _____    ______ ____
ROOT
ATOM      1  C   UNL     1      17.391 -11.058  29.169  0.00  0.00    +0.000 A 
ATOM      2  C   UNL     1      16.326 -10.930  28.314  0.00  0.00    +0.000 A 
ATOM      3  C   UNL     1      16.256  -9.877  27.383  0.00  0.00    +0.000 A 
ATOM      4  C   UNL     1      17.276  -8.993  27.363  0.00  0.00    +0.000 A 
ATOM      5  C   UNL     1      18.331  -9.086  28.179  0.00  0.00    +0.000 A 
ATOM      6  C   UNL     1      18.395 -10.119  29.089  0.00  0.00    +0.000 A 
ATOM      7  C   UNL     1      17.140  -7.757  26.370  0.00  0.00    +0.000 C 
ATOM      8  C   UNL     1      16.639  -8.596  25.060  0.00  0.00    +0.000 C 
ATOM      9  C   UNL     1      15.203  -8.809  25.498  0.00  0.00    +0.000 C 
ATOM     10  O   UNL     1      14.319  -8.123  25.037  0.00  0.00    +0.000 OA
ATOM     11  N   UNL     1      15.123  -9.866  26.456  0.00  0.00    +0.000 NA
ENDROOT
BRANCH   7  12
ATOM     12  C   UNL     1      18.630  -7.574  25.938  0.00  0.00    +0.000 A 
ATOM     13  S   UNL     1      19.767  -8.609  25.279  0.00  0.00    +0.000 S 
ATOM     14  C   UNL     1      21.104  -7.514  25.153  0.00  0.00    +0.000 A 
ATOM     15  C   UNL     1      20.571  -6.380  25.645  0.00  0.00    +0.000 A 
ATOM     16  C   UNL     1      19.276  -6.395  26.060  0.00  0.00    +0.000 A 
ATOM     17  C   UNL     1      18.674  -5.117  26.614  0.00  0.00    +0.000 C 
ENDBRANCH   7  12
BRANCH   1  19
ATOM     18  C   UNL     1      16.727 -12.084  31.287  0.00  0.00    +0.000 C 
ATOM     19  O   UNL     1      17.479 -12.078  30.086  0.00  0.00    +0.000 OA
ENDBRANCH   1  19
BRANCH   6  20
ATOM     20  O   UNL     1      19.515 -10.194  29.936  0.00  0.00    +0.000 OA
ATOM     21  C   UNL     1      19.492  -9.592  31.203  0.00  0.00    +0.000 C 
ENDBRANCH   6  20
TORSDOF 3
ENDMDL
MODEL 4
REMARK VINA RESULT:      -5.5     32.720     34.866
REMARK  Name = 
REMARK  3 active torsions:
REMARK  status: ('A' for Active; 'I' for Inactive)
REMARK    1  A    between atoms: O_2  and  C_3
REMARK    2  A    between atoms: C_8  and  O_9
REMARK    3  A    between atoms: C_11  and  C_12
REMARK                            x       y       z     vdW  Elec       q    Type
REMARK                         _______ _______ _______ _____ _____    ______ ____
ROOT
ATOM      1  C   UNL     1      21.824  -8.485  24.890  0.00  0.00    +0.000 A 
ATOM      2  C   UNL     1      21.558  -7.189  25.253  0.00  0.00    +0.000 A 
ATOM      3  C   UNL     1      20.276  -6.795  25.678  0.00  0.00    +0.000 A 
ATOM      4  C   UNL     1      19.313  -7.740  25.714  0.00  0.00    +0.000 A 
ATOM      5  C   UNL     1      19.533  -9.012  25.369  0.00  0.00    +0.000 A 
ATOM      6  C   UNL     1      20.791  -9.394  24.953  0.00  0.00    +0.000 A 
ATOM      7  C   UNL     1      17.847  -7.260  26.108  0.00  0.00    +0.000 C 
ATOM      8  C   UNL     1      18.266  -6.342  27.393  0.00  0.00    +0.000 C 
ATOM      9  C   UNL     1      18.792  -5.148  26.620  0.00  0.00    +0.000 C 
ATOM     10  O   UNL     1      18.111  -4.154  26.499  0.00  0.00    +0.000 OA
ATOM     11  N   UNL     1      20.106  -5.411  26.124  0.00  0.00    +0.000 NA
ENDROOT
BRANCH   7  12
ATOM     12  C   UNL     1      17.344  -8.508  26.903  0.00  0.00    +0.000 A 
ATOM     13  S   UNL     1      17.820  -9.217  28.342  0.00  0.00    +0.000 S 
ATOM     14  C   UNL     1      16.689 -10.528  28.396  0.00  0.00    +0.000 A 
ATOM     15  C   UNL     1      15.992 -10.330  27.262  0.00  0.00    +0.000 A 
ATOM     16  C   UNL     1      16.323  -9.276  26.468  0.00  0.00    +0.000 A 
ATOM     17  C   UNL     1      15.538  -9.051  25.189  0.00  0.00    +0.000 C 
ENDBRANCH   7  12
BRANCH   1  19
ATOM     18  C   UNL     1      24.006  -7.993  23.902  0.00  0.00    +0.000 C 
ATOM     19  O   UNL     1      23.069  -8.890  24.471  0.00  0.00    +0.000 OA
ENDBRANCH   1  19
BRANCH   6  20
ATOM     20  O   UNL     1      20.996 -10.738  24.596  0.00  0.00    +0.000 OA
ATOM     21  C   UNL     1      21.385 -11.680  25.560  0.00  0.00    +0.000 C 
ENDBRANCH   6  20
TORSDOF 3
ENDMDL
MODEL 5
REMARK VINA RESULT:      -5.4     18.474     20.802
REMARK  Name = 
REMARK  3 active torsions:
REMARK  status: ('A' for Active; 'I' for Inactive)
REMARK    1  A    between atoms: O_2  and  C_3
REMARK    2  A    between atoms: C_8  and  O_9
REMARK    3  A    between atoms: C_11  and  C_12
REMARK                            x       y       z     vdW  Elec       q    Type
REMARK                         _______ _______ _______ _____ _____    ______ ____
ROOT
ATOM      1  C   UNL     1      21.219  14.205  39.009  0.00  0.00    +0.000 A 
ATOM      2  C   UNL     1      20.053  13.538  38.735  0.00  0.00    +0.000 A 
ATOM      3  C   UNL     1      20.060  12.238  38.195  0.00  0.00    +0.000 A 
ATOM      4  C   UNL     1      21.261  11.671  37.952  0.00  0.00    +0.000 A 
ATOM      5  C   UNL     1      22.419  12.289  38.206  0.00  0.00    +0.000 A 
ATOM      6  C   UNL     1      22.406  13.561  38.736  0.00  0.00    +0.000 A 
ATOM      7  C   UNL     1      21.253  10.240  37.256  0.00  0.00    +0.000 C 
ATOM      8  C   UNL     1      20.100   9.558  38.191  0.00  0.00    +0.000 C 
ATOM      9  C   UNL     1      18.901  10.229  37.547  0.00  0.00    +0.000 C 
ATOM     10  O   UNL     1      18.215   9.618  36.759  0.00  0.00    +0.000 OA
ATOM     11  N   UNL     1      18.769  11.573  38.012  0.00  0.00    +0.000 NA
ENDROOT
BRANCH   7  12
ATOM     12  C   UNL     1      22.492   9.582  37.946  0.00  0.00    +0.000 A 
ATOM     13  S   UNL     1      22.760   8.979  39.483  0.00  0.00    +0.000 S 
ATOM     14  C   UNL     1      24.406   8.470  39.302  0.00  0.00    +0.000 A 
ATOM     15  C   UNL     1      24.654   8.808  38.023  0.00  0.00    +0.000 A 
ATOM     16  C   UNL     1      23.661   9.392  37.299  0.00  0.00    +0.000 A 
ATOM     17  C   UNL     1      23.939   9.773  35.857  0.00  0.00    +0.000 C 
ENDBRANCH   7  12
BRANCH   1  19
ATOM     18  C   UNL     1      21.028  16.628  38.740  0.00  0.00    +0.000 C 
ATOM     19  O   UNL     1      21.234  15.474  39.536  0.00  0.00    +0.000 OA
ENDBRANCH   1  19
BRANCH   6  20
ATOM     20  O   UNL     1      23.637  14.188  38.994  0.00  0.00    +0.000 OA
ATOM     21  C   UNL     1      24.704  14.064  38.092  0.00  0.00    +0.000 C 
ENDBRANCH   6  20
TORSDOF 3
ENDMDL
MODEL 6
REMARK VINA RESULT:      -5.4      5.087      7.594
REMARK  Name = 
REMARK  3 active torsions:
REMARK  status: ('A' for Active; 'I' for Inactive)
REMARK    1  A    between atoms: O_2  and  C_3
REMARK    2  A    between atoms: C_8  and  O_9
REMARK    3  A    between atoms: C_11  and  C_12
REMARK                            x       y       z     vdW  Elec       q    Type
REMARK                         _______ _______ _______ _____ _____    ______ ____
ROOT
ATOM      1  C   UNL     1      26.588  23.297  28.678  0.00  0.00    +0.000 A 
ATOM      2  C   UNL     1      26.967  22.825  27.447  0.00  0.00    +0.000 A 
ATOM      3  C   UNL     1      26.483  23.403  26.259  0.00  0.00    +0.000 A 
ATOM      4  C   UNL     1      25.627  24.440  26.374  0.00  0.00    +0.000 A 
ATOM      5  C   UNL     1      25.235  24.928  27.555  0.00  0.00    +0.000 A 
ATOM      6  C   UNL     1      25.713  24.359  28.716  0.00  0.00    +0.000 A 
ATOM      7  C   UNL     1      25.016  25.023  25.025  0.00  0.00    +0.000 C 
ATOM      8  C   UNL     1      26.409  25.086  24.175  0.00  0.00    +0.000 C 
ATOM      9  C   UNL     1      26.516  23.607  23.859  0.00  0.00    +0.000 C 
ATOM     10  O   UNL     1      26.205  23.195  22.764  0.00  0.00    +0.000 OA
ATOM     11  N   UNL     1      27.005  22.887  24.993  0.00  0.00    +0.000 NA
ENDROOT
BRANCH   7  12
ATOM     12  C   UNL     1      24.927  26.541  25.387  0.00  0.00    +0.000 A 
ATOM     13  S   UNL     1      26.079  27.713  25.697  0.00  0.00    +0.000 S 
ATOM     14  C   UNL     1      25.033  29.063  25.994  0.00  0.00    +0.000 A 
ATOM     15  C   UNL     1      23.819  28.505  25.829  0.00  0.00    +0.000 A 
ATOM     16  C   UNL     1      23.747  27.184  25.510  0.00  0.00    +0.000 A 
ATOM     17  C   UNL     1      22.379  26.554  25.323  0.00  0.00    +0.000 C 
ENDBRANCH   7  12
BRANCH   1  19
ATOM     18  C   UNL     1      26.441  21.615  30.447  0.00  0.00    +0.000 C 
ATOM     19  O   UNL     1      27.050  22.746  29.850  0.00  0.00    +0.000 OA
ENDBRANCH   1  19
BRANCH   6  20
ATOM     20  O   UNL     1      25.285  24.891  29.945  0.00  0.00    +0.000 OA
ATOM     21  C   UNL     1      24.557  26.089  29.989  0.00  0.00    +0.000 C 
ENDBRANCH   6  20
TORSDOF 3
ENDMDL
MODEL 7
REMARK VINA RESULT:      -5.4      3.766      6.110
REMARK  Name = 
REMARK  3 active torsions:
REMARK  status: ('A' for Active; 'I' for Inactive)
REMARK    1  A    between atoms: O_2  and  C_3
REMARK    2  A    between atoms: C_8  and  O_9
REMARK    3  A    between atoms: C_11  and  C_12
REMARK                            x       y       z     vdW  Elec       q    Type
REMARK                         _______ _______ _______ _____ _____    ______ ____
ROOT
ATOM      1  C   UNL     1      27.275  22.846  28.554  0.00  0.00    +0.000 A 
ATOM      2  C   UNL     1      26.116  23.561  28.396  0.00  0.00    +0.000 A 
ATOM      3  C   UNL     1      25.954  24.471  27.335  0.00  0.00    +0.000 A 
ATOM      4  C   UNL     1      26.984  24.618  26.477  0.00  0.00    +0.000 A 
ATOM      5  C   UNL     1      28.130  23.939  26.597  0.00  0.00    +0.000 A 
ATOM      6  C   UNL     1      28.284  23.048  27.638  0.00  0.00    +0.000 A 
ATOM      7  C   UNL     1      26.822  25.717  25.338  0.00  0.00    +0.000 C 
ATOM      8  C   UNL     1      25.307  25.318  24.876  0.00  0.00    +0.000 C 
ATOM      9  C   UNL     1      24.571  25.956  26.038  0.00  0.00    +0.000 C 
ATOM     10  O   UNL     1      24.021  27.025  25.895  0.00  0.00    +0.000 OA
ATOM     11  N   UNL     1      24.652  25.128  27.199  0.00  0.00    +0.000 NA
ENDROOT
BRANCH   7  12
ATOM     12  C   UNL     1      27.584  25.023  24.163  0.00  0.00    +0.000 A 
ATOM     13  S   UNL     1      27.221  23.726  23.170  0.00  0.00    +0.000 S 
ATOM     14  C   UNL     1      28.652  23.711  22.194  0.00  0.00    +0.000 A 
ATOM     15  C   UNL     1      29.344  24.743  22.712  0.00  0.00    +0.000 A 
ATOM     16  C   UNL     1      28.798  25.440  23.744  0.00  0.00    +0.000 A 
ATOM     17  C   UNL     1      29.576  26.604  24.330  0.00  0.00    +0.000 C 
ENDBRANCH   7  12
BRANCH   1  19
ATOM     18  C   UNL     1      26.411  21.610  30.479  0.00  0.00    +0.000 C 
ATOM     19  O   UNL     1      27.454  21.952  29.583  0.00  0.00    +0.000 OA
ENDBRANCH   1  19
BRANCH   6  20
ATOM     20  O   UNL     1      29.497  22.346  27.741  0.00  0.00    +0.000 OA
ATOM     21  C   UNL     1      30.354  22.237  26.637  0.00  0.00    +0.000 C 
ENDBRANCH   6  20
TORSDOF 3
ENDMDL
MODEL 8
REMARK VINA RESULT:      -5.3      3.799      6.006
REMARK  Name = 
REMARK  3 active torsions:
REMARK  status: ('A' for Active; 'I' for Inactive)
REMARK    1  A    between atoms: O_2  and  C_3
REMARK    2  A    between atoms: C_8  and  O_9
REMARK    3  A    between atoms: C_11  and  C_12
REMARK                            x       y       z     vdW  Elec       q    Type
REMARK                         _______ _______ _______ _____ _____    ______ ____
ROOT
ATOM      1  C   UNL     1      27.566  23.459  23.994  0.00  0.00    +0.000 A 
ATOM      2  C   UNL     1      26.433  24.219  24.134  0.00  0.00    +0.000 A 
ATOM      3  C   UNL     1      25.877  24.480  25.400  0.00  0.00    +0.000 A 
ATOM      4  C   UNL     1      26.499  23.952  26.475  0.00  0.00    +0.000 A 
ATOM      5  C   UNL     1      27.605  23.207  26.379  0.00  0.00    +0.000 A 
ATOM      6  C   UNL     1      28.146  22.954  25.137  0.00  0.00    +0.000 A 
ATOM      7  C   UNL     1      25.807  24.177  27.891  0.00  0.00    +0.000 C 
ATOM      8  C   UNL     1      25.491  25.771  27.716  0.00  0.00    +0.000 C 
ATOM      9  C   UNL     1      24.293  25.636  26.797  0.00  0.00    +0.000 C 
ATOM     10  O   UNL     1      23.172  25.758  27.239  0.00  0.00    +0.000 OA
ATOM     11  N   UNL     1      24.715  25.368  25.459  0.00  0.00    +0.000 NA
ENDROOT
BRANCH   7  12
ATOM     12  C   UNL     1      27.068  24.317  28.803  0.00  0.00    +0.000 A 
ATOM     13  S   UNL     1      28.299  25.447  28.892  0.00  0.00    +0.000 S 
ATOM     14  C   UNL     1      29.216  24.761  30.192  0.00  0.00    +0.000 A 
ATOM     15  C   UNL     1      28.491  23.667  30.486  0.00  0.00    +0.000 A 
ATOM     16  C   UNL     1      27.362  23.420  29.768  0.00  0.00    +0.000 A 
ATOM     17  C   UNL     1      26.543  22.186  30.099  0.00  0.00    +0.000 C 
ENDBRANCH   7  12
BRANCH   1  19
ATOM     18  C   UNL     1      28.906  24.145  22.066  0.00  0.00    +0.000 C 
ATOM     19  O   UNL     1      28.126  23.192  22.767  0.00  0.00    +0.000 OA
ENDBRANCH   1  19
BRANCH   6  20
ATOM     20  O   UNL     1      29.310  22.169  25.063  0.00  0.00    +0.000 OA
ATOM     21  C   UNL     1      30.569  22.736  25.303  0.00  0.00    +0.000 C 
ENDBRANCH   6  20
TORSDOF 3
ENDMDL
MODEL 9
REMARK VINA RESULT:      -5.3     19.999     21.896
REMARK  Name = 
REMARK  3 active torsions:
REMARK  status: ('A' for Active; 'I' for Inactive)
REMARK    1  A    between atoms: O_2  and  C_3
REMARK    2  A    between atoms: C_8  and  O_9
REMARK    3  A    between atoms: C_11  and  C_12
REMARK                            x       y       z     vdW  Elec       q    Type
REMARK                         _______ _______ _______ _____ _____    ______ ____
ROOT
ATOM      1  C   UNL     1      26.919   6.691  13.491  0.00  0.00    +0.000 A 
ATOM      2  C   UNL     1      27.634   7.237  14.526  0.00  0.00    +0.000 A 
ATOM      3  C   UNL     1      27.404   6.854  15.860  0.00  0.00    +0.000 A 
ATOM      4  C   UNL     1      26.449   5.928  16.087  0.00  0.00    +0.000 A 
ATOM      5  C   UNL     1      25.731   5.372  15.105  0.00  0.00    +0.000 A 
ATOM      6  C   UNL     1      25.961   5.750  13.800  0.00  0.00    +0.000 A 
ATOM      7  C   UNL     1      26.136   5.572  17.606  0.00  0.00    +0.000 C 
ATOM      8  C   UNL     1      27.684   5.422  18.108  0.00  0.00    +0.000 C 
ATOM      9  C   UNL     1      28.010   6.901  18.191  0.00  0.00    +0.000 C 
ATOM     10  O   UNL     1      28.020   7.461  19.264  0.00  0.00    +0.000 OA
ATOM     11  N   UNL     1      28.271   7.429  16.889  0.00  0.00    +0.000 NA
ENDROOT
BRANCH   7  12
ATOM     12  C   UNL     1      25.812   4.048  17.480  0.00  0.00    +0.000 A 
ATOM     13  S   UNL     1      26.663   2.744  16.870  0.00  0.00    +0.000 S 
ATOM     14  C   UNL     1      25.504   1.490  17.164  0.00  0.00    +0.000 A 
ATOM     15  C   UNL     1      24.499   2.180  17.735  0.00  0.00    +0.000 A 
ATOM     16  C   UNL     1      24.645   3.522  17.908  0.00  0.00    +0.000 A 
ATOM     17  C   UNL     1      23.514   4.301  18.552  0.00  0.00    +0.000 C 
ENDBRANCH   7  12
BRANCH   1  19
ATOM     18  C   UNL     1      28.399   6.957  11.563  0.00  0.00    +0.000 C 
ATOM     19  O   UNL     1      27.128   7.051  12.181  0.00  0.00    +0.000 OA
ENDBRANCH   1  19
BRANCH   6  20
ATOM     20  O   UNL     1      25.193   5.150  12.786  0.00  0.00    +0.000 OA
ATOM     21  C   UNL     1      24.021   4.449  13.101  0.00  0.00    +0.000 C 
ENDBRANCH   6  20
TORSDOF 3
ENDMDL
MODEL 10
REMARK VINA RESULT:      -5.2      2.793      3.931
REMARK  Name = 
REMARK  3 active torsions:
REMARK  status: ('A' for Active; 'I' for Inactive)
REMARK    1  A    between atoms: O_2  and  C_3
REMARK    2  A    between atoms: C_8  and  O_9
REMARK    3  A    between atoms: C_11  and  C_12
REMARK                            x       y       z     vdW  Elec       q    Type
REMARK                         _______ _______ _______ _____ _____    ______ ____
ROOT
ATOM      1  C   UNL     1      27.727  23.032  24.786  0.00  0.00    +0.000 A 
ATOM      2  C   UNL     1      26.780  23.158  25.770  0.00  0.00    +0.000 A 
ATOM      3  C   UNL     1      27.139  23.235  27.129  0.00  0.00    +0.000 A 
ATOM      4  C   UNL     1      28.454  23.177  27.430  0.00  0.00    +0.000 A 
ATOM      5  C   UNL     1      29.406  23.055  26.500  0.00  0.00    +0.000 A 
ATOM      6  C   UNL     1      29.049  22.981  25.170  0.00  0.00    +0.000 A 
ATOM      7  C   UNL     1      28.839  23.171  28.975  0.00  0.00    +0.000 C 
ATOM      8  C   UNL     1      27.853  24.388  29.440  0.00  0.00    +0.000 C 
ATOM      9  C   UNL     1      26.555  23.605  29.436  0.00  0.00    +0.000 C 
ATOM     10  O   UNL     1      26.081  23.210  30.477  0.00  0.00    +0.000 OA
ATOM     11  N   UNL     1      26.067  23.451  28.102  0.00  0.00    +0.000 NA
ENDROOT
BRANCH   7  12
ATOM     12  C   UNL     1      30.171  23.988  28.937  0.00  0.00    +0.000 A 
ATOM     13  S   UNL     1      30.513  25.610  28.713  0.00  0.00    +0.000 S 
ATOM     14  C   UNL     1      32.241  25.552  28.835  0.00  0.00    +0.000 A 
ATOM     15  C   UNL     1      32.452  24.240  29.049  0.00  0.00    +0.000 A 
ATOM     16  C   UNL     1      31.378  23.408  29.106  0.00  0.00    +0.000 A 
ATOM     17  C   UNL     1      31.614  21.928  29.348  0.00  0.00    +0.000 C 
ENDBRANCH   7  12
BRANCH   1  19
ATOM     18  C   UNL     1      26.884  24.064  22.736  0.00  0.00    +0.000 C 
ATOM     19  O   UNL     1      27.397  22.955  23.454  0.00  0.00    +0.000 OA
ENDBRANCH   1  19
BRANCH   6  20
ATOM     20  O   UNL     1      30.069  22.854  24.212  0.00  0.00    +0.000 OA
ATOM     21  C   UNL     1      31.397  23.162  24.539  0.00  0.00    +0.000 C 
ENDBRANCH   6  20
TORSDOF 3
ENDMDL
