MODEL 1
REMARK VINA RESULT:      -8.1      0.000      0.000
REMARK  Name = 
REMARK  6 active torsions:
REMARK  status: ('A' for Active; 'I' for Inactive)
REMARK    1  A    between atoms: C_2  and  O_3
REMARK    2  A    between atoms: O_3  and  C_4
REMARK    3  A    between atoms: C_7  and  C_8
REMARK    4  A    between atoms: C_18  and  O_19
REMARK    5  A    between atoms: O_19  and  C_20
REMARK    6  A    between atoms: C_20  and  C_21
REMARK                            x       y       z     vdW  Elec       q    Type
REMARK                         _______ _______ _______ _____ _____    ______ ____
ROOT
ATOM      1  C   UNL     1      37.398   4.959  15.107  0.00  0.00    +0.000 C 
ATOM      2  N   UNL     1      38.758   4.453  14.456  0.00  0.00    +0.000 NA
ATOM      3  C   UNL     1      38.343   3.941  13.179  0.00  0.00    +0.000 C 
ATOM      4  C   UNL     1      37.876   2.515  13.435  0.00  0.00    +0.000 C 
ATOM      5  C   UNL     1      37.090   2.477  14.722  0.00  0.00    +0.000 A 
ATOM      6  C   UNL     1      36.857   3.550  15.494  0.00  0.00    +0.000 A 
ATOM      7  N   UNL     1      36.147   3.181  16.531  0.00  0.00    +0.000 NA
ATOM      8  C   UNL     1      35.882   1.842  16.485  0.00  0.00    +0.000 A 
ATOM      9  C   UNL     1      35.202   0.949  17.284  0.00  0.00    +0.000 A 
ATOM     10  C   UNL     1      35.101  -0.389  16.968  0.00  0.00    +0.000 A 
ATOM     11  C   UNL     1      35.694  -0.856  15.820  0.00  0.00    +0.000 A 
ATOM     12  C   UNL     1      36.369   0.045  15.030  0.00  0.00    +0.000 A 
ATOM     13  C   UNL     1      36.493   1.378  15.309  0.00  0.00    +0.000 A 
ENDROOT
BRANCH   1  17
ATOM     14  C   UNL     1      39.061   6.333  18.895  0.00  0.00    +0.000 A 
ATOM     15  C   UNL     1      38.475   7.203  18.004  0.00  0.00    +0.000 A 
ATOM     16  C   UNL     1      37.950   6.728  16.791  0.00  0.00    +0.000 A 
ATOM     17  C   UNL     1      38.027   5.379  16.509  0.00  0.00    +0.000 A 
ATOM     18  C   UNL     1      38.592   4.557  17.371  0.00  0.00    +0.000 A 
ATOM     19  C   UNL     1      39.110   5.008  18.560  0.00  0.00    +0.000 A 
BRANCH  14  20
ATOM     20  O   UNL     1      39.588   6.810  20.109  0.00  0.00    +0.000 OA
BRANCH  20  22
ATOM     21  C   UNL     1      41.913   6.377  20.438  0.00  0.00    +0.000 C 
ATOM     22  C   UNL     1      40.831   7.417  20.230  0.00  0.00    +0.000 C 
ENDBRANCH  20  22
ENDBRANCH  14  20
ENDBRANCH   1  17
BRANCH  11  23
ATOM     23  O   UNL     1      35.646  -2.179  15.420  0.00  0.00    +0.000 OA
BRANCH  23  24
ATOM     24  C   UNL     1      36.597  -3.120  15.881  0.00  0.00    +0.000 C 
BRANCH  24  25
ATOM     25  C   UNL     1      37.835  -2.944  15.109  0.00  0.00    +0.000 A 
ATOM     26  C   UNL     1      38.998  -2.671  15.766  0.00  0.00    +0.000 A 
ATOM     27  C   UNL     1      40.159  -2.508  15.018  0.00  0.00    +0.000 A 
ATOM     28  C   UNL     1      40.154  -2.615  13.657  0.00  0.00    +0.000 A 
ATOM     29  C   UNL     1      38.986  -2.889  13.004  0.00  0.00    +0.000 A 
ATOM     30  C   UNL     1      37.836  -3.050  13.752  0.00  0.00    +0.000 A 
ENDBRANCH  24  25
ENDBRANCH  23  24
ENDBRANCH  11  23
TORSDOF 6
ENDMDL
MODEL 2
REMARK VINA RESULT:      -8.0      1.933      2.563
REMARK  Name = 
REMARK  6 active torsions:
REMARK  status: ('A' for Active; 'I' for Inactive)
REMARK    1  A    between atoms: C_2  and  O_3
REMARK    2  A    between atoms: O_3  and  C_4
REMARK    3  A    between atoms: C_7  and  C_8
REMARK    4  A    between atoms: C_18  and  O_19
REMARK    5  A    between atoms: O_19  and  C_20
REMARK    6  A    between atoms: C_20  and  C_21
REMARK                            x       y       z     vdW  Elec       q    Type
REMARK                         _______ _______ _______ _____ _____    ______ ____
ROOT
ATOM      1  C   UNL     1      38.549   5.295  14.956  0.00  0.00    +0.000 C 
ATOM      2  N   UNL     1      39.964   4.571  15.020  0.00  0.00    +0.000 NA
ATOM      3  C   UNL     1      40.019   3.842  13.783  0.00  0.00    +0.000 C 
ATOM      4  C   UNL     1      39.282   2.535  14.037  0.00  0.00    +0.000 C 
ATOM      5  C   UNL     1      38.053   2.815  14.865  0.00  0.00    +0.000 A 
ATOM      6  C   UNL     1      37.695   4.036  15.292  0.00  0.00    +0.000 A 
ATOM      7  N   UNL     1      36.585   3.938  15.980  0.00  0.00    +0.000 NA
ATOM      8  C   UNL     1      36.163   2.639  16.035  0.00  0.00    +0.000 A 
ATOM      9  C   UNL     1      35.096   1.978  16.603  0.00  0.00    +0.000 A 
ATOM     10  C   UNL     1      34.930   0.615  16.484  0.00  0.00    +0.000 A 
ATOM     11  C   UNL     1      35.854  -0.116  15.777  0.00  0.00    +0.000 A 
ATOM     12  C   UNL     1      36.914   0.555  15.215  0.00  0.00    +0.000 A 
ATOM     13  C   UNL     1      37.114   1.904  15.310  0.00  0.00    +0.000 A 
ENDROOT
BRANCH   1  17
ATOM     14  C   UNL     1      38.890   6.884  19.001  0.00  0.00    +0.000 A 
ATOM     15  C   UNL     1      39.503   5.709  18.631  0.00  0.00    +0.000 A 
ATOM     16  C   UNL     1      39.372   5.223  17.319  0.00  0.00    +0.000 A 
ATOM     17  C   UNL     1      38.624   5.943  16.409  0.00  0.00    +0.000 A 
ATOM     18  C   UNL     1      38.042   7.067  16.777  0.00  0.00    +0.000 A 
ATOM     19  C   UNL     1      38.161   7.552  18.056  0.00  0.00    +0.000 A 
BRANCH  14  20
ATOM     20  O   UNL     1      39.021   7.368  20.314  0.00  0.00    +0.000 OA
BRANCH  20  22
ATOM     21  C   UNL     1      39.724   9.622  20.668  0.00  0.00    +0.000 C 
ATOM     22  C   UNL     1      38.588   8.622  20.726  0.00  0.00    +0.000 C 
ENDBRANCH  20  22
ENDBRANCH  14  20
ENDBRANCH   1  17
BRANCH  11  23
ATOM     23  O   UNL     1      35.771  -1.486  15.604  0.00  0.00    +0.000 OA
BRANCH  23  24
ATOM     24  C   UNL     1      35.359  -2.335  16.658  0.00  0.00    +0.000 C 
BRANCH  24  25
ATOM     25  C   UNL     1      36.518  -2.599  17.522  0.00  0.00    +0.000 A 
ATOM     26  C   UNL     1      37.435  -3.534  17.141  0.00  0.00    +0.000 A 
ATOM     27  C   UNL     1      38.525  -3.769  17.972  0.00  0.00    +0.000 A 
ATOM     28  C   UNL     1      38.690  -3.091  19.145  0.00  0.00    +0.000 A 
ATOM     29  C   UNL     1      37.768  -2.156  19.521  0.00  0.00    +0.000 A 
ATOM     30  C   UNL     1      36.687  -1.926  18.692  0.00  0.00    +0.000 A 
ENDBRANCH  24  25
ENDBRANCH  23  24
ENDBRANCH  11  23
TORSDOF 6
ENDMDL
MODEL 3
REMARK VINA RESULT:      -7.8      2.024      8.362
REMARK  Name = 
REMARK  6 active torsions:
REMARK  status: ('A' for Active; 'I' for Inactive)
REMARK    1  A    between atoms: C_2  and  O_3
REMARK    2  A    between atoms: O_3  and  C_4
REMARK    3  A    between atoms: C_7  and  C_8
REMARK    4  A    between atoms: C_18  and  O_19
REMARK    5  A    between atoms: O_19  and  C_20
REMARK    6  A    between atoms: C_20  and  C_21
REMARK                            x       y       z     vdW  Elec       q    Type
REMARK                         _______ _______ _______ _____ _____    ______ ____
ROOT
ATOM      1  C   UNL     1      36.594  -0.154  14.583  0.00  0.00    +0.000 C 
ATOM      2  N   UNL     1      36.376  -0.551  16.108  0.00  0.00    +0.000 NA
ATOM      3  C   UNL     1      35.264   0.267  16.507  0.00  0.00    +0.000 C 
ATOM      4  C   UNL     1      35.855   1.616  16.890  0.00  0.00    +0.000 C 
ATOM      5  C   UNL     1      36.934   1.980  15.901  0.00  0.00    +0.000 A 
ATOM      6  C   UNL     1      37.290   1.213  14.859  0.00  0.00    +0.000 A 
ATOM      7  N   UNL     1      38.249   1.812  14.198  0.00  0.00    +0.000 NA
ATOM      8  C   UNL     1      38.567   3.006  14.781  0.00  0.00    +0.000 A 
ATOM      9  C   UNL     1      39.467   4.015  14.521  0.00  0.00    +0.000 A 
ATOM     10  C   UNL     1      39.560   5.138  15.315  0.00  0.00    +0.000 A 
ATOM     11  C   UNL     1      38.731   5.263  16.404  0.00  0.00    +0.000 A 
ATOM     12  C   UNL     1      37.836   4.249  16.653  0.00  0.00    +0.000 A 
ATOM     13  C   UNL     1      37.713   3.121  15.890  0.00  0.00    +0.000 A 
ENDROOT
BRANCH   1  17
ATOM     14  C   UNL     1      40.081  -2.630  13.737  0.00  0.00    +0.000 A 
ATOM     15  C   UNL     1      39.191  -2.271  12.750  0.00  0.00    +0.000 A 
ATOM     16  C   UNL     1      38.076  -1.473  13.057  0.00  0.00    +0.000 A 
ATOM     17  C   UNL     1      37.890  -1.053  14.358  0.00  0.00    +0.000 A 
ATOM     18  C   UNL     1      38.749  -1.405  15.293  0.00  0.00    +0.000 A 
ATOM     19  C   UNL     1      39.842  -2.186  15.008  0.00  0.00    +0.000 A 
BRANCH  14  20
ATOM     20  O   UNL     1      41.195  -3.431  13.429  0.00  0.00    +0.000 OA
BRANCH  20  22
ATOM     21  C   UNL     1      43.166  -2.095  13.599  0.00  0.00    +0.000 C 
ATOM     22  C   UNL     1      42.303  -2.980  12.724  0.00  0.00    +0.000 C 
ENDBRANCH  20  22
ENDBRANCH  14  20
ENDBRANCH   1  17
BRANCH  11  23
ATOM     23  O   UNL     1      38.751   6.352  17.257  0.00  0.00    +0.000 OA
BRANCH  23  24
ATOM     24  C   UNL     1      38.937   6.190  18.649  0.00  0.00    +0.000 C 
BRANCH  24  25
ATOM     25  C   UNL     1      40.365   6.362  18.949  0.00  0.00    +0.000 A 
ATOM     26  C   UNL     1      40.781   6.350  20.248  0.00  0.00    +0.000 A 
ATOM     27  C   UNL     1      42.136   6.515  20.511  0.00  0.00    +0.000 A 
ATOM     28  C   UNL     1      43.045   6.685  19.507  0.00  0.00    +0.000 A 
ATOM     29  C   UNL     1      42.623   6.696  18.208  0.00  0.00    +0.000 A 
ATOM     30  C   UNL     1      41.275   6.533  17.952  0.00  0.00    +0.000 A 
ENDBRANCH  24  25
ENDBRANCH  23  24
ENDBRANCH  11  23
TORSDOF 6
ENDMDL
MODEL 4
REMARK VINA RESULT:      -7.7      3.461      4.351
REMARK  Name = 
REMARK  6 active torsions:
REMARK  status: ('A' for Active; 'I' for Inactive)
REMARK    1  A    between atoms: C_2  and  O_3
REMARK    2  A    between atoms: O_3  and  C_4
REMARK    3  A    between atoms: C_7  and  C_8
REMARK    4  A    between atoms: C_18  and  O_19
REMARK    5  A    between atoms: O_19  and  C_20
REMARK    6  A    between atoms: C_20  and  C_21
REMARK                            x       y       z     vdW  Elec       q    Type
REMARK                         _______ _______ _______ _____ _____    ______ ____
ROOT
ATOM      1  C   UNL     1      35.501   5.893  12.668  0.00  0.00    +0.000 C 
ATOM      2  N   UNL     1      37.060   6.208  12.665  0.00  0.00    +0.000 NA
ATOM      3  C   UNL     1      37.603   5.183  11.817  0.00  0.00    +0.000 C 
ATOM      4  C   UNL     1      37.799   3.966  12.709  0.00  0.00    +0.000 C 
ATOM      5  C   UNL     1      36.616   3.837  13.635  0.00  0.00    +0.000 A 
ATOM      6  C   UNL     1      35.572   4.681  13.644  0.00  0.00    +0.000 A 
ATOM      7  N   UNL     1      34.719   4.293  14.559  0.00  0.00    +0.000 NA
ATOM      8  C   UNL     1      35.169   3.170  15.195  0.00  0.00    +0.000 A 
ATOM      9  C   UNL     1      34.697   2.359  16.204  0.00  0.00    +0.000 A 
ATOM     10  C   UNL     1      35.398   1.259  16.649  0.00  0.00    +0.000 A 
ATOM     11  C   UNL     1      36.607   0.953  16.073  0.00  0.00    +0.000 A 
ATOM     12  C   UNL     1      37.068   1.770  15.066  0.00  0.00    +0.000 A 
ATOM     13  C   UNL     1      36.404   2.869  14.598  0.00  0.00    +0.000 A 
ENDROOT
BRANCH   1  17
ATOM     14  C   UNL     1      34.638   9.035  15.564  0.00  0.00    +0.000 A 
ATOM     15  C   UNL     1      35.927   8.640  15.287  0.00  0.00    +0.000 A 
ATOM     16  C   UNL     1      36.171   7.623  14.349  0.00  0.00    +0.000 A 
ATOM     17  C   UNL     1      35.101   7.030  13.709  0.00  0.00    +0.000 A 
ATOM     18  C   UNL     1      33.872   7.418  13.985  0.00  0.00    +0.000 A 
ATOM     19  C   UNL     1      33.619   8.409  14.900  0.00  0.00    +0.000 A 
BRANCH  14  20
ATOM     20  O   UNL     1      34.395  10.051  16.505  0.00  0.00    +0.000 OA
BRANCH  20  22
ATOM     21  C   UNL     1      32.570  10.069  18.043  0.00  0.00    +0.000 C 
ATOM     22  C   UNL     1      34.048   9.817  17.828  0.00  0.00    +0.000 C 
ENDBRANCH  20  22
ENDBRANCH  14  20
ENDBRANCH   1  17
BRANCH  11  23
ATOM     23  O   UNL     1      37.381  -0.129  16.452  0.00  0.00    +0.000 OA
BRANCH  23  24
ATOM     24  C   UNL     1      36.840  -1.183  17.225  0.00  0.00    +0.000 C 
BRANCH  24  25
ATOM     25  C   UNL     1      36.257  -2.176  16.313  0.00  0.00    +0.000 A 
ATOM     26  C   UNL     1      37.024  -2.690  15.309  0.00  0.00    +0.000 A 
ATOM     27  C   UNL     1      36.454  -3.629  14.455  0.00  0.00    +0.000 A 
ATOM     28  C   UNL     1      35.160  -4.040  14.603  0.00  0.00    +0.000 A 
ATOM     29  C   UNL     1      34.398  -3.521  15.612  0.00  0.00    +0.000 A 
ATOM     30  C   UNL     1      34.969  -2.588  16.456  0.00  0.00    +0.000 A 
ENDBRANCH  24  25
ENDBRANCH  23  24
ENDBRANCH  11  23
TORSDOF 6
ENDMDL
MODEL 5
REMARK VINA RESULT:      -7.6     25.179     28.451
REMARK  Name = 
REMARK  6 active torsions:
REMARK  status: ('A' for Active; 'I' for Inactive)
REMARK    1  A    between atoms: C_2  and  O_3
REMARK    2  A    between atoms: O_3  and  C_4
REMARK    3  A    between atoms: C_7  and  C_8
REMARK    4  A    between atoms: C_18  and  O_19
REMARK    5  A    between atoms: O_19  and  C_20
REMARK    6  A    between atoms: C_20  and  C_21
REMARK                            x       y       z     vdW  Elec       q    Type
REMARK                         _______ _______ _______ _____ _____    ______ ____
ROOT
ATOM      1  C   UNL     1      29.706  13.524  41.315  0.00  0.00    +0.000 C 
ATOM      2  N   UNL     1      30.498  13.233  39.967  0.00  0.00    +0.000 NA
ATOM      3  C   UNL     1      30.876  14.544  39.516  0.00  0.00    +0.000 C 
ATOM      4  C   UNL     1      29.675  15.085  38.754  0.00  0.00    +0.000 C 
ATOM      5  C   UNL     1      28.414  14.714  39.494  0.00  0.00    +0.000 A 
ATOM      6  C   UNL     1      28.391  14.018  40.640  0.00  0.00    +0.000 A 
ATOM      7  N   UNL     1      27.147  13.866  41.021  0.00  0.00    +0.000 NA
ATOM      8  C   UNL     1      26.294  14.460  40.135  0.00  0.00    +0.000 A 
ATOM      9  C   UNL     1      24.928  14.608  40.038  0.00  0.00    +0.000 A 
ATOM     10  C   UNL     1      24.335  15.282  38.993  0.00  0.00    +0.000 A 
ATOM     11  C   UNL     1      25.125  15.830  38.011  0.00  0.00    +0.000 A 
ATOM     12  C   UNL     1      26.487  15.676  38.119  0.00  0.00    +0.000 A 
ATOM     13  C   UNL     1      27.113  15.015  39.139  0.00  0.00    +0.000 A 
ENDROOT
BRANCH   1  17
ATOM     14  C   UNL     1      28.595   9.343  41.852  0.00  0.00    +0.000 A 
ATOM     15  C   UNL     1      28.918   9.853  40.615  0.00  0.00    +0.000 A 
ATOM     16  C   UNL     1      29.270  11.206  40.476  0.00  0.00    +0.000 A 
ATOM     17  C   UNL     1      29.291  12.012  41.597  0.00  0.00    +0.000 A 
ATOM     18  C   UNL     1      28.979  11.510  42.775  0.00  0.00    +0.000 A 
ATOM     19  C   UNL     1      28.632  10.191  42.925  0.00  0.00    +0.000 A 
BRANCH  14  20
ATOM     20  O   UNL     1      28.241   7.989  41.989  0.00  0.00    +0.000 OA
BRANCH  20  22
ATOM     21  C   UNL     1      25.935   7.682  41.455  0.00  0.00    +0.000 C 
ATOM     22  C   UNL     1      27.025   7.552  42.498  0.00  0.00    +0.000 C 
ENDBRANCH  20  22
ENDBRANCH  14  20
ENDBRANCH   1  17
BRANCH  11  23
ATOM     23  O   UNL     1      24.621  16.523  36.925  0.00  0.00    +0.000 OA
BRANCH  23  24
ATOM     24  C   UNL     1      25.481  17.129  35.978  0.00  0.00    +0.000 C 
BRANCH  24  25
ATOM     25  C   UNL     1      25.386  16.379  34.719  0.00  0.00    +0.000 A 
ATOM     26  C   UNL     1      25.857  15.100  34.666  0.00  0.00    +0.000 A 
ATOM     27  C   UNL     1      25.758  14.407  33.465  0.00  0.00    +0.000 A 
ATOM     28  C   UNL     1      25.205  14.975  32.354  0.00  0.00    +0.000 A 
ATOM     29  C   UNL     1      24.734  16.256  32.413  0.00  0.00    +0.000 A 
ATOM     30  C   UNL     1      24.835  16.940  33.608  0.00  0.00    +0.000 A 
ENDBRANCH  24  25
ENDBRANCH  23  24
ENDBRANCH  11  23
TORSDOF 6
ENDMDL
MODEL 6
REMARK VINA RESULT:      -7.6      2.686      9.044
REMARK  Name = 
REMARK  6 active torsions:
REMARK  status: ('A' for Active; 'I' for Inactive)
REMARK    1  A    between atoms: C_2  and  O_3
REMARK    2  A    between atoms: O_3  and  C_4
REMARK    3  A    between atoms: C_7  and  C_8
REMARK    4  A    between atoms: C_18  and  O_19
REMARK    5  A    between atoms: O_19  and  C_20
REMARK    6  A    between atoms: C_20  and  C_21
REMARK                            x       y       z     vdW  Elec       q    Type
REMARK                         _______ _______ _______ _____ _____    ______ ____
ROOT
ATOM      1  C   UNL     1      38.886  -2.488  15.494  0.00  0.00    +0.000 C 
ATOM      2  N   UNL     1      39.133  -2.345  13.929  0.00  0.00    +0.000 NA
ATOM      3  C   UNL     1      40.256  -1.451  13.851  0.00  0.00    +0.000 C 
ATOM      4  C   UNL     1      39.677  -0.047  13.939  0.00  0.00    +0.000 C 
ATOM      5  C   UNL     1      38.580  -0.030  14.974  0.00  0.00    +0.000 A 
ATOM      6  C   UNL     1      38.201  -1.101  15.688  0.00  0.00    +0.000 A 
ATOM      7  N   UNL     1      37.231  -0.754  16.496  0.00  0.00    +0.000 NA
ATOM      8  C   UNL     1      36.929   0.570  16.347  0.00  0.00    +0.000 A 
ATOM      9  C   UNL     1      36.027   1.440  16.919  0.00  0.00    +0.000 A 
ATOM     10  C   UNL     1      35.953   2.767  16.552  0.00  0.00    +0.000 A 
ATOM     11  C   UNL     1      36.804   3.246  15.586  0.00  0.00    +0.000 A 
ATOM     12  C   UNL     1      37.700   2.369  15.023  0.00  0.00    +0.000 A 
ATOM     13  C   UNL     1      37.804   1.047  15.358  0.00  0.00    +0.000 A 
ENDROOT
BRANCH   1  17
ATOM     14  C   UNL     1      35.393  -5.092  15.371  0.00  0.00    +0.000 A 
ATOM     15  C   UNL     1      36.344  -5.203  16.360  0.00  0.00    +0.000 A 
ATOM     16  C   UNL     1      37.459  -4.348  16.370  0.00  0.00    +0.000 A 
ATOM     17  C   UNL     1      37.584  -3.397  15.377  0.00  0.00    +0.000 A 
ATOM     18  C   UNL     1      36.666  -3.303  14.437  0.00  0.00    +0.000 A 
ATOM     19  C   UNL     1      35.572  -4.132  14.414  0.00  0.00    +0.000 A 
BRANCH  14  20
ATOM     20  O   UNL     1      34.278  -5.949  15.362  0.00  0.00    +0.000 OA
BRANCH  20  22
ATOM     21  C   UNL     1      34.018  -8.282  14.930  0.00  0.00    +0.000 C 
ATOM     22  C   UNL     1      34.022  -6.878  14.363  0.00  0.00    +0.000 C 
ENDBRANCH  20  22
ENDBRANCH  14  20
ENDBRANCH   1  17
BRANCH  11  23
ATOM     23  O   UNL     1      36.804   4.560  15.154  0.00  0.00    +0.000 OA
BRANCH  23  24
ATOM     24  C   UNL     1      37.998   5.317  15.106  0.00  0.00    +0.000 C 
BRANCH  24  25
ATOM     25  C   UNL     1      38.309   5.781  16.465  0.00  0.00    +0.000 A 
ATOM     26  C   UNL     1      37.940   7.038  16.842  0.00  0.00    +0.000 A 
ATOM     27  C   UNL     1      38.243   7.458  18.132  0.00  0.00    +0.000 A 
ATOM     28  C   UNL     1      38.894   6.646  19.016  0.00  0.00    +0.000 A 
ATOM     29  C   UNL     1      39.260   5.387  18.632  0.00  0.00    +0.000 A 
ATOM     30  C   UNL     1      38.957   4.975  17.349  0.00  0.00    +0.000 A 
ENDBRANCH  24  25
ENDBRANCH  23  24
ENDBRANCH  11  23
TORSDOF 6
ENDMDL
MODEL 7
REMARK VINA RESULT:      -7.5      3.800      9.510
REMARK  Name = 
REMARK  6 active torsions:
REMARK  status: ('A' for Active; 'I' for Inactive)
REMARK    1  A    between atoms: C_2  and  O_3
REMARK    2  A    between atoms: O_3  and  C_4
REMARK    3  A    between atoms: C_7  and  C_8
REMARK    4  A    between atoms: C_18  and  O_19
REMARK    5  A    between atoms: O_19  and  C_20
REMARK    6  A    between atoms: C_20  and  C_21
REMARK                            x       y       z     vdW  Elec       q    Type
REMARK                         _______ _______ _______ _____ _____    ______ ____
ROOT
ATOM      1  C   UNL     1      37.971  -2.863  14.890  0.00  0.00    +0.000 C 
ATOM      2  N   UNL     1      37.763  -2.848  13.313  0.00  0.00    +0.000 NA
ATOM      3  C   UNL     1      38.667  -1.823  12.870  0.00  0.00    +0.000 C 
ATOM      4  C   UNL     1      37.917  -0.508  13.032  0.00  0.00    +0.000 C 
ATOM      5  C   UNL     1      37.150  -0.535  14.330  0.00  0.00    +0.000 A 
ATOM      6  C   UNL     1      37.151  -1.570  15.184  0.00  0.00    +0.000 A 
ATOM      7  N   UNL     1      36.391  -1.277  16.209  0.00  0.00    +0.000 NA
ATOM      8  C   UNL     1      35.854  -0.029  16.072  0.00  0.00    +0.000 A 
ATOM      9  C   UNL     1      35.012   0.764  16.821  0.00  0.00    +0.000 A 
ATOM     10  C   UNL     1      34.633   2.024  16.410  0.00  0.00    +0.000 A 
ATOM     11  C   UNL     1      35.106   2.514  15.217  0.00  0.00    +0.000 A 
ATOM     12  C   UNL     1      35.946   1.714  14.479  0.00  0.00    +0.000 A 
ATOM     13  C   UNL     1      36.345   0.460  14.851  0.00  0.00    +0.000 A 
ENDROOT
BRANCH   1  17
ATOM     14  C   UNL     1      34.762  -5.737  15.560  0.00  0.00    +0.000 A 
ATOM     15  C   UNL     1      34.675  -4.769  14.585  0.00  0.00    +0.000 A 
ATOM     16  C   UNL     1      35.727  -3.857  14.396  0.00  0.00    +0.000 A 
ATOM     17  C   UNL     1      36.847  -3.948  15.198  0.00  0.00    +0.000 A 
ATOM     18  C   UNL     1      36.916  -4.879  16.128  0.00  0.00    +0.000 A 
ATOM     19  C   UNL     1      35.896  -5.776  16.325  0.00  0.00    +0.000 A 
BRANCH  14  20
ATOM     20  O   UNL     1      33.708  -6.648  15.750  0.00  0.00    +0.000 OA
BRANCH  20  22
ATOM     21  C   UNL     1      34.163  -8.822  14.875  0.00  0.00    +0.000 C 
ATOM     22  C   UNL     1      33.887  -7.979  16.102  0.00  0.00    +0.000 C 
ENDBRANCH  20  22
ENDBRANCH  14  20
ENDBRANCH   1  17
BRANCH  11  23
ATOM     23  O   UNL     1      34.782   3.765  14.723  0.00  0.00    +0.000 OA
BRANCH  23  24
ATOM     24  C   UNL     1      35.709   4.518  13.966  0.00  0.00    +0.000 C 
BRANCH  24  25
ATOM     25  C   UNL     1      35.372   5.942  14.103  0.00  0.00    +0.000 A 
ATOM     26  C   UNL     1      34.062   6.321  14.090  0.00  0.00    +0.000 A 
ATOM     27  C   UNL     1      33.763   7.674  14.220  0.00  0.00    +0.000 A 
ATOM     28  C   UNL     1      34.743   8.613  14.359  0.00  0.00    +0.000 A 
ATOM     29  C   UNL     1      36.054   8.226  14.372  0.00  0.00    +0.000 A 
ATOM     30  C   UNL     1      36.345   6.883  14.241  0.00  0.00    +0.000 A 
ENDBRANCH  24  25
ENDBRANCH  23  24
ENDBRANCH  11  23
TORSDOF 6
ENDMDL
MODEL 8
REMARK VINA RESULT:      -7.5      1.496      2.219
REMARK  Name = 
REMARK  6 active torsions:
REMARK  status: ('A' for Active; 'I' for Inactive)
REMARK    1  A    between atoms: C_2  and  O_3
REMARK    2  A    between atoms: O_3  and  C_4
REMARK    3  A    between atoms: C_7  and  C_8
REMARK    4  A    between atoms: C_18  and  O_19
REMARK    5  A    between atoms: O_19  and  C_20
REMARK    6  A    between atoms: C_20  and  C_21
REMARK                            x       y       z     vdW  Elec       q    Type
REMARK                         _______ _______ _______ _____ _____    ______ ____
ROOT
ATOM      1  C   UNL     1      39.172   5.746  15.371  0.00  0.00    +0.000 C 
ATOM      2  N   UNL     1      40.494   5.048  14.827  0.00  0.00    +0.000 NA
ATOM      3  C   UNL     1      40.159   4.715  13.470  0.00  0.00    +0.000 C 
ATOM      4  C   UNL     1      39.423   3.385  13.538  0.00  0.00    +0.000 C 
ATOM      5  C   UNL     1      38.488   3.398  14.722  0.00  0.00    +0.000 A 
ATOM      6  C   UNL     1      38.351   4.436  15.561  0.00  0.00    +0.000 A 
ATOM      7  N   UNL     1      37.464   4.130  16.475  0.00  0.00    +0.000 NA
ATOM      8  C   UNL     1      36.978   2.869  16.274  0.00  0.00    +0.000 A 
ATOM      9  C   UNL     1      36.059   2.061  16.906  0.00  0.00    +0.000 A 
ATOM     10  C   UNL     1      35.767   0.791  16.457  0.00  0.00    +0.000 A 
ATOM     11  C   UNL     1      36.408   0.308  15.341  0.00  0.00    +0.000 A 
ATOM     12  C   UNL     1      37.323   1.124  14.719  0.00  0.00    +0.000 A 
ATOM     13  C   UNL     1      37.640   2.387  15.134  0.00  0.00    +0.000 A 
ENDROOT
BRANCH   1  17
ATOM     14  C   UNL     1      40.794   6.323  19.376  0.00  0.00    +0.000 A 
ATOM     15  C   UNL     1      41.575   6.462  18.252  0.00  0.00    +0.000 A 
ATOM     16  C   UNL     1      41.022   6.268  16.975  0.00  0.00    +0.000 A 
ATOM     17  C   UNL     1      39.686   5.940  16.866  0.00  0.00    +0.000 A 
ATOM     18  C   UNL     1      38.949   5.809  17.951  0.00  0.00    +0.000 A 
ATOM     19  C   UNL     1      39.477   5.995  19.205  0.00  0.00    +0.000 A 
BRANCH  14  20
ATOM     20  O   UNL     1      41.349   6.516  20.653  0.00  0.00    +0.000 OA
BRANCH  20  22
ATOM     21  C   UNL     1      43.481   5.817  21.469  0.00  0.00    +0.000 C 
ATOM     22  C   UNL     1      42.652   6.938  20.877  0.00  0.00    +0.000 C 
ENDBRANCH  20  22
ENDBRANCH  14  20
ENDBRANCH   1  17
BRANCH  11  23
ATOM     23  O   UNL     1      36.180  -0.952  14.816  0.00  0.00    +0.000 OA
BRANCH  23  24
ATOM     24  C   UNL     1      37.236  -1.724  14.278  0.00  0.00    +0.000 C 
BRANCH  24  25
ATOM     25  C   UNL     1      37.625  -2.734  15.272  0.00  0.00    +0.000 A 
ATOM     26  C   UNL     1      36.821  -3.817  15.473  0.00  0.00    +0.000 A 
ATOM     27  C   UNL     1      37.208  -4.762  16.418  0.00  0.00    +0.000 A 
ATOM     28  C   UNL     1      38.360  -4.626  17.137  0.00  0.00    +0.000 A 
ATOM     29  C   UNL     1      39.161  -3.539  16.930  0.00  0.00    +0.000 A 
ATOM     30  C   UNL     1      38.773  -2.603  15.991  0.00  0.00    +0.000 A 
ENDBRANCH  24  25
ENDBRANCH  23  24
ENDBRANCH  11  23
TORSDOF 6
ENDMDL
MODEL 9
REMARK VINA RESULT:      -7.5     25.397     27.930
REMARK  Name = 
REMARK  6 active torsions:
REMARK  status: ('A' for Active; 'I' for Inactive)
REMARK    1  A    between atoms: C_2  and  O_3
REMARK    2  A    between atoms: O_3  and  C_4
REMARK    3  A    between atoms: C_7  and  C_8
REMARK    4  A    between atoms: C_18  and  O_19
REMARK    5  A    between atoms: O_19  and  C_20
REMARK    6  A    between atoms: C_20  and  C_21
REMARK                            x       y       z     vdW  Elec       q    Type
REMARK                         _______ _______ _______ _____ _____    ______ ____
ROOT
ATOM      1  C   UNL     1      26.731  16.126  33.847  0.00  0.00    +0.000 C 
ATOM      2  N   UNL     1      28.055  16.953  34.154  0.00  0.00    +0.000 NA
ATOM      3  C   UNL     1      29.020  15.931  34.456  0.00  0.00    +0.000 C 
ATOM      4  C   UNL     1      28.826  15.598  35.928  0.00  0.00    +0.000 C 
ATOM      5  C   UNL     1      27.350  15.564  36.236  0.00  0.00    +0.000 A 
ATOM      6  C   UNL     1      26.387  15.795  35.331  0.00  0.00    +0.000 A 
ATOM      7  N   UNL     1      25.220  15.689  35.915  0.00  0.00    +0.000 NA
ATOM      8  C   UNL     1      25.367  15.381  37.238  0.00  0.00    +0.000 A 
ATOM      9  C   UNL     1      24.511  15.159  38.294  0.00  0.00    +0.000 A 
ATOM     10  C   UNL     1      24.969  14.858  39.559  0.00  0.00    +0.000 A 
ATOM     11  C   UNL     1      26.322  14.773  39.782  0.00  0.00    +0.000 A 
ATOM     12  C   UNL     1      27.167  14.997  38.720  0.00  0.00    +0.000 A 
ATOM     13  C   UNL     1      26.752  15.299  37.453  0.00  0.00    +0.000 A 
ENDROOT
BRANCH   1  17
ATOM     14  C   UNL     1      24.283  19.711  33.447  0.00  0.00    +0.000 A 
ATOM     15  C   UNL     1      25.410  19.689  34.236  0.00  0.00    +0.000 A 
ATOM     16  C   UNL     1      26.177  18.516  34.345  0.00  0.00    +0.000 A 
ATOM     17  C   UNL     1      25.784  17.392  33.647  0.00  0.00    +0.000 A 
ATOM     18  C   UNL     1      24.703  17.427  32.895  0.00  0.00    +0.000 A 
ATOM     19  C   UNL     1      23.944  18.566  32.781  0.00  0.00    +0.000 A 
BRANCH  14  20
ATOM     20  O   UNL     1      23.516  20.885  33.340  0.00  0.00    +0.000 OA
BRANCH  20  22
ATOM     21  C   UNL     1      22.071  22.100  31.879  0.00  0.00    +0.000 C 
ATOM     22  C   UNL     1      23.492  21.697  32.215  0.00  0.00    +0.000 C 
ENDBRANCH  20  22
ENDBRANCH  14  20
ENDBRANCH   1  17
BRANCH  11  23
ATOM     23  O   UNL     1      26.875  14.477  41.016  0.00  0.00    +0.000 OA
BRANCH  23  24
ATOM     24  C   UNL     1      28.168  13.914  41.124  0.00  0.00    +0.000 C 
BRANCH  24  25
ATOM     25  C   UNL     1      28.047  12.452  41.038  0.00  0.00    +0.000 A 
ATOM     26  C   UNL     1      26.922  11.846  41.515  0.00  0.00    +0.000 A 
ATOM     27  C   UNL     1      26.827  10.462  41.424  0.00  0.00    +0.000 A 
ATOM     28  C   UNL     1      27.824   9.710  40.873  0.00  0.00    +0.000 A 
ATOM     29  C   UNL     1      28.948  10.323  40.396  0.00  0.00    +0.000 A 
ATOM     30  C   UNL     1      29.038  11.698  40.489  0.00  0.00    +0.000 A 
ENDBRANCH  24  25
ENDBRANCH  23  24
ENDBRANCH  11  23
TORSDOF 6
ENDMDL
MODEL 10
REMARK VINA RESULT:      -7.4      3.294      4.027
REMARK  Name = 
REMARK  6 active torsions:
REMARK  status: ('A' for Active; 'I' for Inactive)
REMARK    1  A    between atoms: C_2  and  O_3
REMARK    2  A    between atoms: O_3  and  C_4
REMARK    3  A    between atoms: C_7  and  C_8
REMARK    4  A    between atoms: C_18  and  O_19
REMARK    5  A    between atoms: O_19  and  C_20
REMARK    6  A    between atoms: C_20  and  C_21
REMARK                            x       y       z     vdW  Elec       q    Type
REMARK                         _______ _______ _______ _____ _____    ______ ____
ROOT
ATOM      1  C   UNL     1      35.610   5.749  12.701  0.00  0.00    +0.000 C 
ATOM      2  N   UNL     1      37.181   5.987  12.629  0.00  0.00    +0.000 NA
ATOM      3  C   UNL     1      37.638   4.923  11.779  0.00  0.00    +0.000 C 
ATOM      4  C   UNL     1      37.813   3.713  12.684  0.00  0.00    +0.000 C 
ATOM      5  C   UNL     1      36.664   3.657  13.661  0.00  0.00    +0.000 A 
ATOM      6  C   UNL     1      35.663   4.550  13.696  0.00  0.00    +0.000 A 
ATOM      7  N   UNL     1      34.832   4.219  14.652  0.00  0.00    +0.000 NA
ATOM      8  C   UNL     1      35.253   3.087  15.290  0.00  0.00    +0.000 A 
ATOM      9  C   UNL     1      34.786   2.317  16.332  0.00  0.00    +0.000 A 
ATOM     10  C   UNL     1      35.451   1.192  16.769  0.00  0.00    +0.000 A 
ATOM     11  C   UNL     1      36.619   0.818  16.149  0.00  0.00    +0.000 A 
ATOM     12  C   UNL     1      37.076   1.594  15.110  0.00  0.00    +0.000 A 
ATOM     13  C   UNL     1      36.446   2.717  14.649  0.00  0.00    +0.000 A 
ENDROOT
BRANCH   1  17
ATOM     14  C   UNL     1      34.553   8.931  15.488  0.00  0.00    +0.000 A 
ATOM     15  C   UNL     1      33.596   8.247  14.773  0.00  0.00    +0.000 A 
ATOM     16  C   UNL     1      33.970   7.227  13.882  0.00  0.00    +0.000 A 
ATOM     17  C   UNL     1      35.308   6.921  13.737  0.00  0.00    +0.000 A 
ATOM     18  C   UNL     1      36.214   7.584  14.427  0.00  0.00    +0.000 A 
ATOM     19  C   UNL     1      35.862   8.584  15.300  0.00  0.00    +0.000 A 
BRANCH  14  20
ATOM     20  O   UNL     1      34.177   9.952  16.378  0.00  0.00    +0.000 OA
BRANCH  20  22
ATOM     21  C   UNL     1      32.529  10.325  18.064  0.00  0.00    +0.000 C 
ATOM     22  C   UNL     1      33.884   9.743  17.719  0.00  0.00    +0.000 C 
ENDBRANCH  20  22
ENDBRANCH  14  20
ENDBRANCH   1  17
BRANCH  11  23
ATOM     23  O   UNL     1      37.355  -0.295  16.517  0.00  0.00    +0.000 OA
BRANCH  23  24
ATOM     24  C   UNL     1      37.076  -1.571  15.975  0.00  0.00    +0.000 C 
BRANCH  24  25
ATOM     25  C   UNL     1      38.194  -1.960  15.104  0.00  0.00    +0.000 A 
ATOM     26  C   UNL     1      37.935  -2.394  13.838  0.00  0.00    +0.000 A 
ATOM     27  C   UNL     1      39.007  -2.758  13.030  0.00  0.00    +0.000 A 
ATOM     28  C   UNL     1      40.295  -2.689  13.476  0.00  0.00    +0.000 A 
ATOM     29  C   UNL     1      40.549  -2.253  14.745  0.00  0.00    +0.000 A 
ATOM     30  C   UNL     1      39.480  -1.894  15.544  0.00  0.00    +0.000 A 
ENDBRANCH  24  25
ENDBRANCH  23  24
ENDBRANCH  11  23
TORSDOF 6
ENDMDL
