
     RDKit          3D

 19 20  0  0  0  0  0  0  0  0999 V2000
   -4.6763   -0.2934    0.9372 C   0  0  0  0  0  0  0  0  0  0  0  0
   -3.9808    0.7108    0.0513 C   0  0  0  0  0  0  0  0  0  0  0  0
   -4.5194    2.0977    0.1877 C   0  0  0  0  0  0  0  0  0  0  0  0
   -3.9592    0.2515   -1.4011 C   0  0  0  0  0  0  0  0  0  0  0  0
   -3.2300   -1.0602   -1.5129 C   0  0  0  0  0  0  0  0  0  0  0  0
   -1.8288   -0.9179   -1.0354 C   0  0  0  0  0  0  0  0  0  0  0  0
   -0.8756   -0.5575   -1.9897 C   0  0  0  0  0  0  0  0  0  0  0  0
    0.4370   -0.4160   -1.5820 C   0  0  0  0  0  0  0  0  0  0  0  0
    0.7895   -0.6266   -0.2659 C   0  0  0  0  0  0  0  0  0  0  0  0
    2.1933   -0.4791    0.1889 C   0  0  1  0  0  0  0  0  0  0  0  0
    2.8716   -1.8161    0.3088 C   0  0  0  0  0  0  0  0  0  0  0  0
    2.8937    0.3761   -0.7737 N   0  0  0  0  0  0  0  0  0  0  0  0
    3.7394    1.2402   -0.0360 C   0  0  0  0  0  0  0  0  0  0  0  0
    4.6865    1.9566   -0.4545 O   0  0  0  0  0  0  0  0  0  0  0  0
    3.3437    1.1817    1.3311 N   0  0  0  0  0  0  0  0  0  0  0  0
    2.2555    0.2877    1.4610 C   0  0  0  0  0  0  0  0  0  0  0  0
    1.5082    0.1802    2.4558 O   0  0  0  0  0  0  0  0  0  0  0  0
   -0.1689   -0.9844    0.6720 C   0  0  0  0  0  0  0  0  0  0  0  0
   -1.4793   -1.1312    0.2915 C   0  0  0  0  0  0  0  0  0  0  0  0
  1  2  1  0
  2  3  1  0
  2  4  1  0
  4  5  1  0
  5  6  1  0
  6  7  2  0
  7  8  1  0
  8  9  2  0
  9 10  1  0
 10 11  1  1
 10 12  1  0
 12 13  1  0
 13 14  2  0
 13 15  1  0
 15 16  1  0
 16 17  2  0
  9 18  1  0
 18 19  2  0
 19  6  1  0
 16 10  1  0
M  END
>  <zinc_id>  (1) 
ZINC000000246386

>  <smiles>  (1) 
CC(C)CCc1ccc([C@@]2(C)NC(=O)NC2=O)cc1

$$$$
