
     RDKit          3D

 20 21  0  0  0  0  0  0  0  0999 V2000
    1.9195    2.5864    1.6629 C   0  0  0  0  0  0  0  0  0  0  0  0
    3.0827    1.4710    1.9227 C   0  0  1  0  0  0  0  0  0  0  0  0
    2.0610    0.2193    1.8165 C   0  0  0  0  0  0  0  0  0  0  0  0
    1.3737    0.4608    0.3393 C   0  0  2  0  0  0  0  0  0  0  0  0
    0.3030   -0.5970    0.5801 O   0  0  0  0  0  0  0  0  0  0  0  0
   -0.5972   -0.7991   -0.4330 C   0  0  0  0  0  0  0  0  0  0  0  0
   -0.5026   -0.1313   -1.4710 O   0  0  0  0  0  0  0  0  0  0  0  0
   -1.7571   -1.8646   -0.3134 C   0  0  1  0  0  0  0  0  0  0  0  0
   -1.4034   -2.3386    1.0641 O   0  0  0  0  0  0  0  0  0  0  0  0
   -2.8770   -0.8656    0.1477 C   0  0  0  0  0  0  0  0  0  0  0  0
   -2.6760   -0.0340    1.1863 C   0  0  0  0  0  0  0  0  0  0  0  0
   -3.6796    0.8357    1.5708 C   0  0  0  0  0  0  0  0  0  0  0  0
   -4.8498    0.8224    0.8794 C   0  0  0  0  0  0  0  0  0  0  0  0
   -5.0438   -0.0347   -0.1834 C   0  0  0  0  0  0  0  0  0  0  0  0
   -4.0229   -0.9097   -0.5637 C   0  0  0  0  0  0  0  0  0  0  0  0
    2.4305   -0.5706   -0.3595 C   0  0  0  0  0  0  0  0  0  0  0  0
    3.6988    0.2431   -0.2364 C   0  0  0  0  0  0  0  0  0  0  0  0
    4.0267    0.6135   -1.7005 C   0  0  0  0  0  0  0  0  0  0  0  0
    4.8910   -0.6391    0.1380 C   0  0  0  0  0  0  0  0  0  0  0  0
    3.6225    1.5322    0.4029 C   0  0  0  0  0  0  0  0  0  0  0  0
  2  1  1  6
  2  3  1  0
  3  4  1  0
  4  5  1  1
  5  6  1  0
  6  7  2  0
  6  8  1  0
  8  9  1  1
  8 10  1  0
 10 11  2  0
 11 12  1  0
 12 13  2  0
 13 14  1  0
 14 15  2  0
  4 16  1  0
 16 17  1  0
 17 18  1  0
 17 19  1  0
 17 20  1  0
 20  2  1  0
 15 10  1  0
M  END
>  <zinc_id>  (1) 
ZINC000000405331

>  <smiles>  (1) 
C[C@H]1C[C@H](OC(=O)[C@@H](O)c2ccccc2)CC(C)(C)C1

$$$$
