
     RDKit          3D

 19 21  0  0  0  0  0  0  0  0999 V2000
    5.0820    1.1448   -0.8860 C   0  0  0  0  0  0  0  0  0  0  0  0
    5.3290    0.0553   -0.1614 C   0  0  0  0  0  0  0  0  0  0  0  0
    5.1426   -1.2700   -0.8004 C   0  0  0  0  0  0  0  0  0  0  0  0
    3.9014   -2.2663    0.0731 S   0  0  0  0  0  0  0  0  0  0  0  0
    2.2900   -1.4671   -0.1121 C   0  0  0  0  0  0  0  0  0  0  0  0
    2.1644   -0.3237   -0.8082 N   0  0  0  0  0  0  0  0  0  0  0  0
    1.0147    0.3086   -0.9791 N   0  0  0  0  0  0  0  0  0  0  0  0
   -0.0976   -0.1936   -0.4420 C   0  0  0  0  0  0  0  0  0  0  0  0
   -0.0115   -1.3612    0.2771 C   0  0  0  0  0  0  0  0  0  0  0  0
    1.1879   -1.9972    0.4405 N   0  0  0  0  0  0  0  0  0  0  0  0
   -1.2597   -1.6505    0.7071 N   0  0  0  0  0  0  0  0  0  0  0  0
   -2.1078   -0.7025    0.2774 C   0  0  0  0  0  0  0  0  0  0  0  0
   -3.4791   -0.4944    0.4179 C   0  0  0  0  0  0  0  0  0  0  0  0
   -4.1027    0.5956   -0.1459 C   0  0  0  0  0  0  0  0  0  0  0  0
   -3.4006    1.5304   -0.8745 C   0  0  0  0  0  0  0  0  0  0  0  0
   -4.1076    2.7021   -1.4740 C   0  0  0  0  0  0  0  0  0  0  0  0
   -4.0921    3.8171   -0.4686 C   0  0  0  0  0  0  0  0  0  0  0  0
   -2.0456    1.3416   -1.0239 C   0  0  0  0  0  0  0  0  0  0  0  0
   -1.4077    0.2310   -0.4500 C   0  0  0  0  0  0  0  0  0  0  0  0
  1  2  2  0
  2  3  1  0
  3  4  1  0
  4  5  1  0
  5  6  2  0
  6  7  1  0
  7  8  2  0
  8  9  1  0
  9 10  2  0
  9 11  1  0
 11 12  1  0
 12 13  2  0
 13 14  1  0
 14 15  2  0
 15 16  1  0
 16 17  1  0
 15 18  1  0
 18 19  2  0
 10  5  1  0
 19 12  1  0
 19  8  1  0
M  END
>  <zinc_id>  (1) 
ZINC000002481994

>  <smiles>  (1) 
C=CCSc1nnc2c(n1)[nH]c1ccc(CC)cc12

$$$$
