
     RDKit          3D

 21 23  0  0  0  0  0  0  0  0999 V2000
   -3.6816    3.3654    0.5887 C   0  0  0  0  0  0  0  0  0  0  0  0
   -2.9710    2.0364    0.6916 C   0  0  0  0  0  0  0  0  0  0  0  0
   -3.0695    0.8423    1.9050 S   0  0  0  0  0  0  0  0  0  0  0  0
   -1.9804   -0.2992    1.2650 C   0  0  0  0  0  0  0  0  0  0  0  0
   -1.5287   -1.5225    1.6675 N   0  0  0  0  0  0  0  0  0  0  0  0
   -0.6396   -2.2248    0.9407 C   0  0  0  0  0  0  0  0  0  0  0  0
   -0.2372   -3.3489    1.3299 O   0  0  0  0  0  0  0  0  0  0  0  0
   -0.2288   -1.6479   -0.1981 N   0  0  0  0  0  0  0  0  0  0  0  0
    0.7330   -2.4145   -0.9820 C   0  0  0  0  0  0  0  0  0  0  0  0
    2.1502   -2.1332   -0.6207 C   0  0  0  0  0  0  0  0  0  0  0  0
    2.5544   -0.7242   -0.8011 C   0  0  0  0  0  0  0  0  0  0  0  0
    2.4110    0.1776    0.2440 C   0  0  0  0  0  0  0  0  0  0  0  0
    2.7810    1.4959    0.1014 C   0  0  0  0  0  0  0  0  0  0  0  0
    3.3077    1.9863   -1.0734 C   0  0  0  0  0  0  0  0  0  0  0  0
    3.4499    1.0897   -2.1116 C   0  0  0  0  0  0  0  0  0  0  0  0
    3.0816   -0.2324   -1.9762 C   0  0  0  0  0  0  0  0  0  0  0  0
   -0.6273   -0.4700   -0.6413 C   0  0  0  0  0  0  0  0  0  0  0  0
   -0.1519   -0.0587   -1.7314 O   0  0  0  0  0  0  0  0  0  0  0  0
   -1.5603    0.2904    0.1008 C   0  0  0  0  0  0  0  0  0  0  0  0
   -2.0727    1.4959   -0.1935 C   0  0  0  0  0  0  0  0  0  0  0  0
   -1.7199    2.2963   -1.4432 C   0  0  0  0  0  0  0  0  0  0  0  0
  1  2  1  0
  2  3  1  0
  3  4  1  0
  4  5  1  0
  5  6  1  0
  6  7  2  0
  6  8  1  0
  8  9  1  0
  9 10  1  0
 10 11  1  0
 11 12  2  0
 12 13  1  0
 13 14  2  0
 14 15  1  0
 15 16  2  0
  8 17  1  0
 17 18  2  0
 17 19  1  0
 19 20  1  0
 20 21  1  0
 20  2  2  0
 19  4  2  0
 16 11  1  0
M  END
>  <zinc_id>  (1) 
ZINC000000423030

>  <smiles>  (1) 
Cc1sc2[nH]c(=O)n(CCc3ccccc3)c(=O)c2c1C

$$$$
