
     RDKit          3D

 19 21  0  0  0  0  0  0  0  0999 V2000
   -3.0344    4.0102    0.7683 C   0  0  0  0  0  0  0  0  0  0  0  0
   -2.2477    2.7493    0.5092 C   0  0  0  0  0  0  0  0  0  0  0  0
   -3.1193    1.6735    0.1270 O   0  0  0  0  0  0  0  0  0  0  0  0
   -2.5819    0.4315   -0.1529 C   0  0  0  0  0  0  0  0  0  0  0  0
   -3.4388   -0.5894   -0.5187 C   0  0  0  0  0  0  0  0  0  0  0  0
   -2.9772   -1.8512   -0.8119 C   0  0  0  0  0  0  0  0  0  0  0  0
   -1.6317   -2.1190   -0.7439 C   0  0  0  0  0  0  0  0  0  0  0  0
   -0.8675   -3.2220   -0.9625 N   0  0  0  0  0  0  0  0  0  0  0  0
    0.4266   -2.9030   -0.7410 C   0  0  0  0  0  0  0  0  0  0  0  0
    0.5279   -1.5814   -0.3728 C   0  0  0  0  0  0  0  0  0  0  0  0
    1.7642   -0.8169   -0.0368 C   0  0  0  0  0  0  0  0  0  0  0  0
    2.9910   -1.4422   -0.0779 C   0  0  0  0  0  0  0  0  0  0  0  0
    4.0501   -0.1822    0.3737 S   0  0  0  0  0  0  0  0  0  0  0  0
    2.8890    1.0450    0.5846 C   0  0  0  0  0  0  0  0  0  0  0  0
    3.0618    2.4197    0.9746 N   0  0  0  0  0  0  0  0  0  0  0  0
    4.4335    2.8740    1.2408 C   0  0  0  0  0  0  0  0  0  0  0  0
    1.7525    0.4368    0.3013 N   0  0  0  0  0  0  0  0  0  0  0  0
   -0.7666   -1.1047   -0.3790 C   0  0  0  0  0  0  0  0  0  0  0  0
   -1.2312    0.1720   -0.0820 C   0  0  0  0  0  0  0  0  0  0  0  0
  1  2  1  0
  2  3  1  0
  3  4  1  0
  4  5  2  0
  5  6  1  0
  6  7  2  0
  7  8  1  0
  8  9  1  0
  9 10  2  0
 10 11  1  0
 11 12  2  0
 12 13  1  0
 13 14  1  0
 14 15  1  0
 15 16  1  0
 14 17  2  0
 10 18  1  0
 18 19  2  0
 19  4  1  0
 18  7  1  0
 17 11  1  0
M  END
>  <zinc_id>  (1) 
ZINC000002330112

>  <smiles>  (1) 
CCOc1ccc2[nH]cc(-c3csc(NC)n3)c2c1

$$$$
