
     RDKit          3D

 21 22  0  0  0  0  0  0  0  0999 V2000
    3.2332    3.8285    0.0025 C   0  0  0  0  0  0  0  0  0  0  0  0
    3.7351    2.3829   -0.1090 C   0  0  0  0  0  0  0  0  0  0  0  0
    2.5702    1.5731    0.1037 O   0  0  0  0  0  0  0  0  0  0  0  0
    2.6191    0.2025    0.0792 C   0  0  0  0  0  0  0  0  0  0  0  0
    3.6844   -0.4048   -0.1301 O   0  0  0  0  0  0  0  0  0  0  0  0
    1.3696   -0.5880    0.3081 C   0  0  0  0  0  0  0  0  0  0  0  0
    0.2360    0.0420    0.5323 C   0  0  0  0  0  0  0  0  0  0  0  0
    0.2826    1.5230    0.5212 C   0  0  0  0  0  0  0  0  0  0  0  0
   -1.0075   -0.7549    0.9169 C   0  0  1  0  0  0  0  0  0  0  0  0
   -2.1573   -0.0701    0.1241 C   0  0  0  0  0  0  0  0  0  0  0  0
   -2.7630   -0.6233   -0.9517 C   0  0  0  0  0  0  0  0  0  0  0  0
   -3.7241    0.0099   -1.7090 C   0  0  0  0  0  0  0  0  0  0  0  0
   -4.0940    1.2736   -1.3595 C   0  0  0  0  0  0  0  0  0  0  0  0
   -3.5141    1.8817   -0.2776 C   0  0  0  0  0  0  0  0  0  0  0  0
   -2.5345    1.1907    0.4683 C   0  0  0  0  0  0  0  0  0  0  0  0
   -1.9804    2.0587    1.8802 Cl  0  0  0  0  0  0  0  0  0  0  0  0
   -0.8668   -2.1027    0.3105 N   0  0  0  0  0  0  0  0  0  0  0  0
    0.3170   -2.7805    0.1052 C   0  0  0  0  0  0  0  0  0  0  0  0
    0.3205   -4.0125   -0.0594 O   0  0  0  0  0  0  0  0  0  0  0  0
    1.4978   -1.9825    0.0971 N   0  0  0  0  0  0  0  0  0  0  0  0
    2.7760   -2.6472   -0.1284 C   0  0  0  0  0  0  0  0  0  0  0  0
  1  2  1  0
  2  3  1  0
  3  4  1  0
  4  5  2  0
  4  6  1  0
  6  7  2  0
  7  8  1  0
  7  9  1  0
  9 10  1  6
 10 11  2  0
 11 12  1  0
 12 13  2  0
 13 14  1  0
 14 15  2  0
 15 16  1  0
  9 17  1  0
 17 18  1  0
 18 19  2  0
 18 20  1  0
 20 21  1  0
 20  6  1  0
 15 10  1  0
M  END
>  <zinc_id>  (1) 
ZINC000000234806

>  <smiles>  (1) 
CCOC(=O)C1=C(C)[C@@H](c2ccccc2Cl)NC(=O)N1C

$$$$
