
     RDKit          3D

 18 18  0  0  0  0  0  0  0  0999 V2000
    1.4989    1.2548    2.7285 C   0  0  0  0  0  0  0  0  0  0  0  0
    2.1052   -0.2235    2.2741 C   0  0  1  0  0  0  0  0  0  0  0  0
    0.9870   -0.4444    1.2111 N   0  0  0  0  0  0  0  0  0  0  0  0
    0.9757   -1.6577    0.5029 C   0  0  0  0  0  0  0  0  0  0  0  0
    2.1019   -2.7794    0.8155 S   0  0  0  0  0  0  0  0  0  0  0  0
   -0.0066   -1.9046   -0.4663 N   0  0  0  0  0  0  0  0  0  0  0  0
   -1.0391   -1.0056   -0.8179 C   0  0  0  0  0  0  0  0  0  0  0  0
   -1.1696    0.2244   -0.2195 C   0  0  0  0  0  0  0  0  0  0  0  0
   -2.1584    1.1358   -0.5272 C   0  0  0  0  0  0  0  0  0  0  0  0
   -3.0606    0.7634   -1.5013 C   0  0  0  0  0  0  0  0  0  0  0  0
   -4.1353    1.6105   -1.9184 C   0  0  0  0  0  0  0  0  0  0  0  0
   -5.0154    2.3079   -2.2605 N   0  0  0  0  0  0  0  0  0  0  0  0
   -2.9532   -0.4655   -2.1185 C   0  0  0  0  0  0  0  0  0  0  0  0
   -1.9504   -1.3538   -1.7858 C   0  0  0  0  0  0  0  0  0  0  0  0
    3.1908    0.4652    1.2461 C   0  0  0  0  0  0  0  0  0  0  0  0
    4.0433    1.3584    2.1639 C   0  0  0  0  0  0  0  0  0  0  0  0
    2.5002    1.3081    0.2906 C   0  0  0  0  0  0  0  0  0  0  0  0
    4.0855   -0.5940    0.7428 C   0  0  0  0  0  0  0  0  0  0  0  0
  2  1  1  1
  2  3  1  0
  3  4  1  0
  4  5  2  0
  4  6  1  0
  6  7  1  0
  7  8  2  0
  8  9  1  0
  9 10  2  0
 10 11  1  0
 11 12  3  0
 10 13  1  0
 13 14  2  0
  2 15  1  0
 15 16  1  0
 15 17  1  0
 15 18  1  0
 14  7  1  0
M  END
>  <zinc_id>  (1) 
ZINC000000004683

>  <smiles>  (1) 
C[C@@H](NC(=S)Nc1ccc(C#N)cc1)C(C)(C)C

$$$$
