
     RDKit          3D

 20 22  0  0  0  0  0  0  0  0999 V2000
    1.1729    2.0483   -0.9899 O   0  0  0  0  0  0  0  0  0  0  0  0
    1.9564    1.1425   -0.5852 C   0  0  0  0  0  0  0  0  0  0  0  0
    1.3988   -0.1036   -0.3493 O   0  0  0  0  0  0  0  0  0  0  0  0
    0.0231   -0.3253   -0.5577 C   0  0  0  0  0  0  0  0  0  0  0  0
   -0.4514   -0.7463   -1.7788 C   0  0  0  0  0  0  0  0  0  0  0  0
   -1.8015   -0.9566   -1.9592 C   0  0  0  0  0  0  0  0  0  0  0  0
   -2.6922   -0.7505   -0.9275 C   0  0  0  0  0  0  0  0  0  0  0  0
   -4.0520   -0.9610   -1.1045 C   0  0  0  0  0  0  0  0  0  0  0  0
   -4.9154   -0.7453   -0.0512 C   0  0  0  0  0  0  0  0  0  0  0  0
   -4.4924   -0.3228    1.1950 C   0  0  0  0  0  0  0  0  0  0  0  0
   -5.4150   -0.1197    2.2290 O   0  0  0  0  0  0  0  0  0  0  0  0
   -3.1382   -0.1139    1.3686 C   0  0  0  0  0  0  0  0  0  0  0  0
   -2.2516   -0.3286    0.3099 C   0  0  0  0  0  0  0  0  0  0  0  0
   -0.8952   -0.1286    0.4532 C   0  0  0  0  0  0  0  0  0  0  0  0
    3.3696    1.4797   -0.4013 C   0  0  0  0  0  0  0  0  0  0  0  0
    3.8500    1.2858    1.0004 C   0  0  0  0  0  0  0  0  0  0  0  0
    4.2729   -0.1373    1.2037 C   0  0  0  0  0  0  0  0  0  0  0  0
    5.2549   -0.6146    0.1530 C   0  0  0  0  0  0  0  0  0  0  0  0
    4.5243   -0.5373   -1.1937 C   0  0  0  0  0  0  0  0  0  0  0  0
    4.2818    0.9352   -1.4503 C   0  0  0  0  0  0  0  0  0  0  0  0
  1  2  2  0
  2  3  1  0
  3  4  1  0
  4  5  2  0
  5  6  1  0
  6  7  2  0
  7  8  1  0
  8  9  2  0
  9 10  1  0
 10 11  1  0
 10 12  2  0
 12 13  1  0
 13 14  2  0
  2 15  1  0
 15 16  1  0
 16 17  1  0
 17 18  1  0
 18 19  1  0
 19 20  1  0
 14  4  1  0
 20 15  1  0
 13  7  1  0
M  END
>  <zinc_id>  (1) 
ZINC000000365219

>  <smiles>  (1) 
O=C(Oc1ccc2ccc(O)cc2c1)C1CCCCC1

$$$$
