
     RDKit          3D

 19 20  0  0  0  0  0  0  0  0999 V2000
   -0.7506    1.1908    1.3753 C   0  0  0  0  0  0  0  0  0  0  0  0
    0.5538    0.1995    1.2928 C   0  0  1  0  0  0  0  0  0  0  0  0
    0.2725   -0.2945   -0.2393 C   0  0  0  0  0  0  0  0  0  0  0  0
   -1.0434   -0.9290   -0.1715 C   0  0  0  0  0  0  0  0  0  0  0  0
   -1.2533   -2.3020    0.0417 C   0  0  0  0  0  0  0  0  0  0  0  0
   -2.5673   -2.5145    0.0778 N   0  0  0  0  0  0  0  0  0  0  0  0
   -3.2076   -1.3559   -0.1010 C   0  0  0  0  0  0  0  0  0  0  0  0
   -4.5393   -0.9902   -0.1711 C   0  0  0  0  0  0  0  0  0  0  0  0
   -4.9787    0.2823   -0.3843 C   0  0  0  0  0  0  0  0  0  0  0  0
   -4.0403    1.2856   -0.5432 C   0  0  0  0  0  0  0  0  0  0  0  0
   -2.7256    0.9717   -0.4809 C   0  0  0  0  0  0  0  0  0  0  0  0
   -2.2748   -0.3241   -0.2632 C   0  0  0  0  0  0  0  0  0  0  0  0
    1.5436    1.3552    0.8777 N   0  0  0  0  0  0  0  0  0  0  0  0
    2.6530    0.8730    0.1307 C   0  0  0  0  0  0  0  0  0  0  0  0
    2.7327   -0.3464   -0.1152 O   0  0  0  0  0  0  0  0  0  0  0  0
    3.6352    1.7301   -0.3225 O   0  0  0  0  0  0  0  0  0  0  0  0
    4.7654    1.5016   -1.0355 C   0  0  0  0  0  0  0  0  0  0  0  0
    5.8393    0.6658   -0.4984 C   0  0  0  0  0  0  0  0  0  0  0  0
    5.3853   -0.9992   -0.1626 Cl  0  0  0  0  0  0  0  0  0  0  0  0
  2  1  1  6
  2  3  1  0
  3  4  1  0
  4  5  2  0
  5  6  1  0
  6  7  1  0
  7  8  2  0
  8  9  1  0
  9 10  2  0
 10 11  1  0
 11 12  2  0
  2 13  1  0
 13 14  1  0
 14 15  2  0
 14 16  1  0
 16 17  1  0
 17 18  1  0
 18 19  1  0
 12  4  1  0
 12  7  1  0
M  END
>  <zinc_id>  (1) 
ZINC000002026515

>  <smiles>  (1) 
C[C@@H](Cc1c[nH]c2ccccc12)NC(=O)OCCCl

$$$$
