
     RDKit          3D

 22 24  0  0  0  0  0  0  0  0999 V2000
   -6.0502   -2.0603    2.0494 C   0  0  0  0  0  0  0  0  0  0  0  0
   -5.5711   -1.1682    1.0575 O   0  0  0  0  0  0  0  0  0  0  0  0
   -4.2164   -0.9340    0.8824 C   0  0  0  0  0  0  0  0  0  0  0  0
   -3.2445   -1.5299    1.6348 C   0  0  0  0  0  0  0  0  0  0  0  0
   -1.9233   -1.2436    1.3976 C   0  0  0  0  0  0  0  0  0  0  0  0
   -1.5612   -0.3553    0.4018 C   0  0  0  0  0  0  0  0  0  0  0  0
   -0.1533   -0.0463    0.1445 C   0  0  0  0  0  0  0  0  0  0  0  0
    0.9533   -0.5584    0.8100 C   0  0  0  0  0  0  0  0  0  0  0  0
    2.1143   -0.0269    0.2799 C   0  0  0  0  0  0  0  0  0  0  0  0
    3.4690   -0.1835    0.5540 C   0  0  0  0  0  0  0  0  0  0  0  0
    4.4286    0.5014   -0.1665 C   0  0  0  0  0  0  0  0  0  0  0  0
    5.8221    0.3575    0.0958 N   0  0  0  0  0  4  0  0  0  0  0  0
    6.6229    1.0093   -0.5978 O   0  0  0  0  0  0  0  0  0  0  0  0
    6.3085   -0.4646    1.0745 O   0  0  0  0  0  1  0  0  0  0  0  0
    3.9708    1.3391   -1.1611 C   0  0  0  0  0  0  0  0  0  0  0  0
    2.6350    1.5121   -1.4529 C   0  0  0  0  0  0  0  0  0  0  0  0
    1.6847    0.8197   -0.7231 C   0  0  0  0  0  0  0  0  0  0  0  0
    0.3388    0.7905   -0.7831 N   0  0  0  0  0  0  0  0  0  0  0  0
   -2.5119    0.2477   -0.3572 C   0  0  0  0  0  0  0  0  0  0  0  0
   -3.8346   -0.0507   -0.1062 C   0  0  0  0  0  0  0  0  0  0  0  0
   -4.8026    0.5712   -0.8883 O   0  0  0  0  0  0  0  0  0  0  0  0
   -4.4791    1.4731   -1.9024 C   0  0  0  0  0  0  0  0  0  0  0  0
  1  2  1  0
  2  3  1  0
  3  4  2  0
  4  5  1  0
  5  6  2  0
  6  7  1  0
  7  8  2  0
  8  9  1  0
  9 10  2  0
 10 11  1  0
 11 12  1  0
 12 13  2  0
 12 14  1  0
 11 15  2  0
 15 16  1  0
 16 17  2  0
 17 18  1  0
  6 19  1  0
 19 20  2  0
 20 21  1  0
 21 22  1  0
 20  3  1  0
 18  7  1  0
 17  9  1  0
M  CHG  2  12   1  14  -1
M  END
>  <zinc_id>  (1) 
ZINC000001518999

>  <smiles>  (1) 
COc1ccc(-c2cc3cc([N+](=O)[O-])ccc3[nH]2)cc1OC

$$$$
