
     RDKit          3D

 20 22  0  0  0  0  0  0  0  0999 V2000
   -6.3373    1.8621   -1.1453 C   0  0  0  0  0  0  0  0  0  0  0  0
   -6.0196    0.6632   -0.4898 O   0  0  0  0  0  0  0  0  0  0  0  0
   -4.6841    0.3922   -0.1561 C   0  0  0  0  0  0  0  0  0  0  0  0
   -4.3222   -0.7720    0.4882 C   0  0  0  0  0  0  0  0  0  0  0  0
   -2.9936   -1.0473    0.8224 C   0  0  0  0  0  0  0  0  0  0  0  0
   -2.0224   -0.1488    0.5079 C   0  0  0  0  0  0  0  0  0  0  0  0
   -0.5617   -0.3365    0.8136 C   0  0  0  0  0  0  0  0  0  0  0  0
    0.0065   -1.0396   -0.4026 C   0  0  0  0  0  0  0  0  0  0  0  0
    1.4590   -1.2921   -0.2504 C   0  0  0  0  0  0  0  0  0  0  0  0
    2.0871   -2.4453    0.0346 N   0  0  0  0  0  0  0  0  0  0  0  0
    3.3831   -2.2469    0.0805 O   0  0  0  0  0  0  0  0  0  0  0  0
    3.6657   -0.9892   -0.1648 C   0  0  0  0  0  0  0  0  0  0  0  0
    2.4648   -0.3595   -0.3785 C   0  0  0  0  0  0  0  0  0  0  0  0
    2.1880    1.0767   -0.6957 C   0  0  0  0  0  0  0  0  0  0  0  0
    3.0126    1.8812    0.3021 C   0  0  0  0  0  0  0  0  0  0  0  0
    4.4434    1.9886   -0.1176 C   0  0  0  0  0  0  0  0  0  0  0  0
    5.3251    0.8950    0.3839 C   0  0  0  0  0  0  0  0  0  0  0  0
    4.9866   -0.4110   -0.1973 N   0  0  0  0  0  0  0  0  0  0  0  0
   -2.3833    1.0282   -0.1426 C   0  0  0  0  0  0  0  0  0  0  0  0
   -3.6977    1.3011   -0.4733 C   0  0  0  0  0  0  0  0  0  0  0  0
  1  2  1  0
  2  3  1  0
  3  4  2  0
  4  5  1  0
  5  6  2  0
  6  7  1  0
  7  8  1  0
  8  9  1  0
  9 10  2  0
 10 11  1  0
 11 12  1  0
 12 13  2  0
 13 14  1  0
 14 15  1  0
 15 16  1  0
 16 17  1  0
 17 18  1  0
  6 19  1  0
 19 20  2  0
 20  3  1  0
 13  9  1  0
 18 12  1  0
M  END
>  <zinc_id>  (1) 
ZINC000003704041

>  <smiles>  (1) 
COc1ccc(CCc2noc3c2CCCCN3)cc1

$$$$
