
     RDKit          3D

 20 21  0  0  0  0  0  0  0  0999 V2000
   -1.6068    2.9448   -2.4673 C   0  0  0  0  0  0  0  0  0  0  0  0
   -1.8311    1.7933   -1.5565 C   0  0  0  0  0  0  0  0  0  0  0  0
   -3.1016    1.3194   -1.2563 C   0  0  0  0  0  0  0  0  0  0  0  0
   -3.2763    0.2509   -0.4090 C   0  0  0  0  0  0  0  0  0  0  0  0
   -4.5974   -0.3170   -0.0364 C   0  0  0  0  0  0  0  0  0  0  0  0
   -2.1472   -0.3306    0.1296 C   0  0  0  0  0  0  0  0  0  0  0  0
   -2.2737   -1.4619    1.0303 C   0  0  0  0  0  0  0  0  0  0  0  0
   -3.5611   -1.9574    1.3469 N   0  0  0  0  0  0  0  0  0  0  0  0
   -1.2434   -1.9811    1.5125 O   0  0  0  0  0  0  0  0  0  0  0  0
   -0.8695    0.1547   -0.1793 C   0  0  0  0  0  0  0  0  0  0  0  0
    0.2602   -0.4934    0.4127 N   0  0  0  0  0  0  0  0  0  0  0  0
    1.5897   -0.0617    0.1502 C   0  0  0  0  0  0  0  0  0  0  0  0
    1.8160    1.0063   -0.6934 C   0  0  0  0  0  0  0  0  0  0  0  0
    3.1288    1.3720   -0.9040 C   0  0  0  0  0  0  0  0  0  0  0  0
    4.1992    0.7290   -0.3196 C   0  0  0  0  0  0  0  0  0  0  0  0
    3.9634   -0.3491    0.5314 C   0  0  0  0  0  0  0  0  0  0  0  0
    5.2672   -1.2181    1.3121 Cl  0  0  0  0  0  0  0  0  0  0  0  0
    2.6430   -0.7174    0.7436 C   0  0  0  0  0  0  0  0  0  0  0  0
    2.4132   -1.8739    1.6581 C   0  0  0  0  0  0  0  0  0  0  0  0
   -0.7726    1.1910   -1.0057 N   0  0  0  0  0  0  0  0  0  0  0  0
  1  2  1  0
  2  3  2  0
  3  4  1  0
  4  5  1  0
  4  6  2  0
  6  7  1  0
  7  8  1  0
  7  9  2  0
  6 10  1  0
 10 11  1  0
 11 12  1  0
 12 13  2  0
 13 14  1  0
 14 15  2  0
 15 16  1  0
 16 17  1  0
 16 18  2  0
 18 19  1  0
 10 20  2  0
 20  2  1  0
 18 12  1  0
M  END
>  <zinc_id>  (1) 
ZINC000000075840

>  <smiles>  (1) 
Cc1cc(C)c(C(N)=O)c(Nc2cccc(Cl)c2C)n1

$$$$
