
     RDKit          3D

 19 21  0  0  0  0  0  0  0  0999 V2000
   -5.6999    1.2443    0.4011 C   0  0  0  0  0  0  0  0  0  0  0  0
   -4.3108    0.6891    0.2713 C   0  0  0  0  0  0  0  0  0  0  0  0
   -3.3555    0.9572    1.2226 C   0  0  0  0  0  0  0  0  0  0  0  0
   -2.0867    0.4561    1.1143 C   0  0  0  0  0  0  0  0  0  0  0  0
   -1.7125   -0.3377    0.0488 C   0  0  0  0  0  0  0  0  0  0  0  0
   -0.3509   -0.8820   -0.0502 C   0  0  0  0  0  0  0  0  0  0  0  0
    0.0668   -1.2256   -1.1871 O   0  0  0  0  0  0  0  0  0  0  0  0
    0.4942   -1.0370    1.0550 N   0  0  0  0  0  0  0  0  0  0  0  0
    1.7686   -1.5632    0.8380 N   0  0  0  0  0  0  0  0  0  0  0  0
    2.6802   -0.7456    0.1062 C   0  0  0  0  0  0  0  0  0  0  0  0
    3.1691    0.4076    0.4650 C   0  0  0  0  0  0  0  0  0  0  0  0
    3.8366    1.7616    0.7176 C   0  0  0  0  0  0  0  0  0  0  0  0
    5.2015    1.3872    0.1280 C   0  0  0  0  0  0  0  0  0  0  0  0
    5.0595    0.6404   -0.9369 C   0  0  0  0  0  0  0  0  0  0  0  0
    3.5044    0.4632   -1.1449 C   0  0  1  0  0  0  0  0  0  0  0  0
    3.3785   -1.1087   -1.1473 C   0  0  0  0  0  0  0  0  0  0  0  0
   -2.6803   -0.6026   -0.9010 C   0  0  0  0  0  0  0  0  0  0  0  0
   -3.9590   -0.1013   -0.7997 C   0  0  0  0  0  0  0  0  0  0  0  0
   -5.0039   -0.4030   -1.8480 C   0  0  0  0  0  0  0  0  0  0  0  0
  1  2  1  0
  2  3  2  0
  3  4  1  0
  4  5  2  0
  5  6  1  0
  6  7  2  0
  6  8  1  0
  8  9  1  0
  9 10  1  0
 10 11  2  0
 11 12  1  0
 12 13  1  0
 13 14  2  0
 15 14  1  1
 15 16  1  0
  5 17  1  0
 17 18  2  0
 18 19  1  0
 18  2  1  0
 16 10  1  0
 15 11  1  0
M  END
>  <zinc_id>  (1) 
ZINC000002739080

>  <smiles>  (1) 
Cc1ccc(C(=O)NNC2=C3CC=C[C@H]3C2)cc1C

$$$$
