
     RDKit          3D

 21 22  0  0  0  0  0  0  0  0999 V2000
   -3.3780    2.4966   -1.2032 C   0  0  0  0  0  0  0  0  0  0  0  0
   -3.5536    1.1351   -1.8352 C   0  0  0  0  0  0  0  0  0  0  0  0
   -3.7372    0.1213   -0.7390 C   0  0  0  0  0  0  0  0  0  0  0  0
   -4.9737   -0.4015   -0.4512 C   0  0  0  0  0  0  0  0  0  0  0  0
   -5.1201   -1.3346    0.5624 C   0  0  0  0  0  0  0  0  0  0  0  0
   -3.9841   -1.7019    1.2509 C   0  0  0  0  0  0  0  0  0  0  0  0
   -2.7412   -1.1711    0.9558 C   0  0  0  0  0  0  0  0  0  0  0  0
   -2.5948   -0.2381   -0.0578 C   0  0  0  0  0  0  0  0  0  0  0  0
   -1.3157    0.3151   -0.3701 N   0  0  0  0  0  0  0  0  0  0  0  0
   -0.1528   -0.0656    0.3424 C   0  0  0  0  0  0  0  0  0  0  0  0
   -0.3252   -0.9210    1.2656 O   0  0  0  0  0  0  0  0  0  0  0  0
    1.1830    0.4759    0.0567 C   0  0  0  0  0  0  0  0  0  0  0  0
    1.3171    1.8002   -0.3077 C   0  0  0  0  0  0  0  0  0  0  0  0
    2.5417    2.3556   -0.5845 C   0  0  0  0  0  0  0  0  0  0  0  0
    3.6477    1.5655   -0.4928 C   0  0  0  0  0  0  0  0  0  0  0  0
    3.5570    0.2389   -0.1323 C   0  0  0  0  0  0  0  0  0  0  0  0
    4.6961   -0.6047   -0.0297 N   0  0  0  0  0  4  0  0  0  0  0  0
    5.6967   -0.3494   -0.7231 O   0  0  0  0  0  0  0  0  0  0  0  0
    4.7601   -1.6968    0.7977 O   0  0  0  0  0  1  0  0  0  0  0  0
    2.3074   -0.2902    0.1400 C   0  0  0  0  0  0  0  0  0  0  0  0
    2.1696   -1.7293    0.5346 C   0  0  0  0  0  0  0  0  0  0  0  0
  1  2  1  0
  2  3  1  0
  3  4  2  0
  4  5  1  0
  5  6  2  0
  6  7  1  0
  7  8  2  0
  8  9  1  0
  9 10  1  0
 10 11  2  0
 10 12  1  0
 12 13  2  0
 13 14  1  0
 14 15  2  0
 15 16  1  0
 16 17  1  0
 17 18  2  0
 17 19  1  0
 16 20  2  0
 20 21  1  0
  8  3  1  0
 20 12  1  0
M  CHG  2  17   1  19  -1
M  END
>  <zinc_id>  (1) 
ZINC000000482797

>  <smiles>  (1) 
CCc1ccccc1NC(=O)c1cccc([N+](=O)[O-])c1C

$$$$
