
     RDKit          3D

 21 24  0  0  0  0  0  0  0  0999 V2000
   -2.0198    2.7591   -1.6261 C   0  0  0  0  0  0  0  0  0  0  0  0
   -1.8603    1.4485   -0.8874 C   0  0  0  0  0  0  0  0  0  0  0  0
   -2.6911    1.5222    0.3806 C   0  0  0  0  0  0  0  0  0  0  0  0
   -2.4515    0.2805    1.1937 C   0  0  0  0  0  0  0  0  0  0  0  0
   -3.2883    0.3246    2.4510 C   0  0  0  0  0  0  0  0  0  0  0  0
   -3.0161   -0.8771    0.3771 C   0  0  0  0  0  0  0  0  0  0  0  0
   -2.2646   -0.9617   -0.9147 C   0  0  0  0  0  0  0  0  0  0  0  0
   -2.8458   -2.1094   -1.7080 C   0  0  0  0  0  0  0  0  0  0  0  0
   -2.3271    0.2989   -1.7376 C   0  0  0  0  0  0  0  0  0  0  0  0
   -0.7941   -1.2421   -0.6158 C   0  0  0  0  0  0  0  0  0  0  0  0
   -0.2612   -0.0893    0.2146 C   0  0  0  0  0  0  0  0  0  0  0  0
    1.2112   -0.3243    0.3859 C   0  0  0  0  0  0  0  0  0  0  0  0
    1.7020   -1.5834    0.6499 C   0  0  0  0  0  0  0  0  0  0  0  0
    3.0750   -1.8128    0.8016 C   0  0  0  0  0  0  0  0  0  0  0  0
    3.9496   -0.7739    0.6858 C   0  0  0  0  0  0  0  0  0  0  0  0
    5.3353   -0.9578    0.8265 O   0  0  0  0  0  0  0  0  0  0  0  0
    3.4878    0.4916    0.4236 C   0  0  0  0  0  0  0  0  0  0  0  0
    4.3531    1.5990    0.2955 N   0  0  0  0  0  0  0  0  0  0  0  0
    2.1081    0.7114    0.2729 C   0  0  0  0  0  0  0  0  0  0  0  0
   -0.4167    1.2134   -0.5539 C   0  0  0  0  0  0  0  0  0  0  0  0
   -0.9858    0.0826    1.5195 C   0  0  0  0  0  0  0  0  0  0  0  0
  1  2  1  0
  2  3  1  0
  3  4  1  0
  4  5  1  0
  4  6  1  0
  6  7  1  0
  7  8  1  0
  7  9  1  0
  7 10  1  0
 10 11  1  0
 11 12  1  0
 12 13  2  0
 13 14  1  0
 14 15  2  0
 15 16  1  0
 15 17  1  0
 17 18  1  0
 17 19  2  0
 11 20  1  0
 11 21  1  0
  9  2  1  0
 19 12  1  0
 20  2  1  0
 21  4  1  0
M  END
>  <zinc_id>  (1) 
ZINC000004420150

>  <smiles>  (1) 
CC12CC3(C)CC(C)(C1)CC(c1ccc(O)c(N)c1)(C2)C3

$$$$
