
     RDKit          3D

 20 22  0  0  0  0  0  0  0  0999 V2000
    5.3755   -0.3385   -1.4607 C   0  0  0  0  0  0  0  0  0  0  0  0
    4.5441   -1.2393   -0.6104 C   0  0  0  0  0  0  0  0  0  0  0  0
    5.3050   -1.6660    0.6219 C   0  0  0  0  0  0  0  0  0  0  0  0
    3.2848   -0.5450   -0.2627 C   0  0  0  0  0  0  0  0  0  0  0  0
    2.8591    0.5114   -1.0286 C   0  0  0  0  0  0  0  0  0  0  0  0
    1.7052    1.2147   -0.7822 C   0  0  0  0  0  0  0  0  0  0  0  0
    0.9271    0.8424    0.2942 C   0  0  0  0  0  0  0  0  0  0  0  0
   -0.3144    1.6100    0.5477 C   0  0  0  0  0  0  0  0  0  0  0  0
   -1.4556    1.0542   -0.1404 N   0  0  0  0  0  0  0  0  0  0  0  0
   -1.8363    1.4019   -1.3743 C   0  0  0  0  0  0  0  0  0  0  0  0
   -1.2809    2.2408   -2.1105 O   0  0  0  0  0  0  0  0  0  0  0  0
   -2.9362    0.7087   -1.7406 N   0  0  0  0  0  0  0  0  0  0  0  0
   -3.2645   -0.1012   -0.7138 C   0  0  0  0  0  0  0  0  0  0  0  0
   -4.2792   -1.0143   -0.5360 C   0  0  0  0  0  0  0  0  0  0  0  0
   -4.3333   -1.6910    0.6567 C   0  0  0  0  0  0  0  0  0  0  0  0
   -3.4029   -1.4598    1.6357 C   0  0  0  0  0  0  0  0  0  0  0  0
   -2.3947   -0.5529    1.4599 C   0  0  0  0  0  0  0  0  0  0  0  0
   -2.3124    0.1389    0.2814 C   0  0  0  0  0  0  0  0  0  0  0  0
    1.3205   -0.2130    1.0872 C   0  0  0  0  0  0  0  0  0  0  0  0
    2.4892   -0.9021    0.8127 C   0  0  0  0  0  0  0  0  0  0  0  0
  1  2  1  0
  2  3  1  0
  2  4  1  0
  4  5  2  0
  5  6  1  0
  6  7  2  0
  7  8  1  0
  8  9  1  0
  9 10  1  0
 10 11  2  0
 10 12  1  0
 12 13  1  0
 13 14  2  0
 14 15  1  0
 15 16  2  0
 16 17  1  0
 17 18  2  0
  7 19  1  0
 19 20  2  0
 20  4  1  0
 18  9  1  0
 18 13  1  0
M  END
>  <zinc_id>  (1) 
ZINC000000104740

>  <smiles>  (1) 
CC(C)c1ccc(Cn2c(=O)[nH]c3ccccc32)cc1

$$$$
