
     RDKit          3D

 21 22  0  0  0  0  0  0  0  0999 V2000
   -4.3928    2.9703   -2.3040 C   0  0  0  0  0  0  0  0  0  0  0  0
   -3.7175    1.8161   -1.6618 C   0  0  0  0  0  0  0  0  0  0  0  0
   -4.2363    0.6774   -1.7674 O   0  0  0  0  0  0  0  0  0  0  0  0
   -2.5227    1.9489   -0.9417 N   0  0  0  0  0  0  0  0  0  0  0  0
   -1.8572    0.8575   -0.3176 C   0  0  0  0  0  0  0  0  0  0  0  0
   -0.6866    1.0645    0.3729 C   0  0  0  0  0  0  0  0  0  0  0  0
    0.0091    0.0527    1.0007 C   0  0  0  0  0  0  0  0  0  0  0  0
    1.1681    0.3445    1.6677 O   0  0  0  0  0  0  0  0  0  0  0  0
    2.4262    0.3362    1.1251 C   0  0  0  0  0  0  0  0  0  0  0  0
    2.6039    0.0139   -0.2036 C   0  0  0  0  0  0  0  0  0  0  0  0
    3.8738   -0.0038   -0.7878 C   0  0  0  0  0  0  0  0  0  0  0  0
    4.9747    0.3013   -0.0453 C   0  0  0  0  0  0  0  0  0  0  0  0
    4.8083    0.6235    1.2786 C   0  0  0  0  0  0  0  0  0  0  0  0
    6.0229    0.9513    2.0635 C   0  0  0  0  0  0  0  0  0  0  0  0
    3.5521    0.6416    1.8589 C   0  0  0  0  0  0  0  0  0  0  0  0
   -0.5355   -1.2178    0.9044 C   0  0  0  0  0  0  0  0  0  0  0  0
   -1.7074   -1.4596    0.2198 C   0  0  0  0  0  0  0  0  0  0  0  0
   -2.2746   -2.7626    0.1156 N   0  0  0  0  0  4  0  0  0  0  0  0
   -1.6988   -3.7174    0.6577 O   0  0  0  0  0  0  0  0  0  0  0  0
   -3.4346   -3.0107   -0.5604 O   0  0  0  0  0  1  0  0  0  0  0  0
   -2.3751   -0.4279   -0.3943 C   0  0  0  0  0  0  0  0  0  0  0  0
  1  2  1  0
  2  3  2  0
  2  4  1  0
  4  5  1  0
  5  6  2  0
  6  7  1  0
  7  8  1  0
  8  9  1  0
  9 10  2  0
 10 11  1  0
 11 12  2  0
 12 13  1  0
 13 14  1  0
 13 15  2  0
  7 16  2  0
 16 17  1  0
 17 18  1  0
 18 19  2  0
 18 20  1  0
 17 21  2  0
 21  5  1  0
 15  9  1  0
M  CHG  2  18   1  20  -1
M  END
>  <zinc_id>  (1) 
ZINC000000432670

>  <smiles>  (1) 
CC(=O)Nc1cc(Oc2cccc(C)c2)cc([N+](=O)[O-])c1

$$$$
