
     RDKit          3D

 20 21  0  0  0  0  0  0  0  0999 V2000
   -5.1335   -0.6566    0.4559 C   0  0  0  0  0  0  0  0  0  0  0  0
   -3.6432   -0.5774    0.3077 C   0  0  0  0  0  0  0  0  0  0  0  0
   -2.8534   -1.7016    0.3375 C   0  0  0  0  0  0  0  0  0  0  0  0
   -1.4843   -1.6549    0.2018 C   0  0  0  0  0  0  0  0  0  0  0  0
   -0.8361   -0.4381    0.0255 C   0  0  0  0  0  0  0  0  0  0  0  0
    0.6075   -0.3489   -0.1115 C   0  0  0  0  0  0  0  0  0  0  0  0
    1.0935    0.7058   -0.5866 O   0  0  0  0  0  0  0  0  0  0  0  0
    1.4599   -1.3816    0.2630 N   0  0  0  0  0  0  0  0  0  0  0  0
    2.8465   -1.2810    0.1194 C   0  0  0  0  0  0  0  0  0  0  0  0
    3.7320   -1.3467    1.2715 C   0  0  0  0  0  0  0  0  0  0  0  0
    4.9283   -0.4087    1.2053 C   0  0  0  0  0  0  0  0  0  0  0  0
    4.4205    0.9493    0.7252 C   0  0  0  0  0  0  0  0  0  0  0  0
    4.7502    1.0233   -0.7517 C   0  0  0  0  0  0  0  0  0  0  0  0
    3.6805    0.3659   -1.5818 C   0  0  0  0  0  0  0  0  0  0  0  0
    3.4194   -1.0511   -1.2123 C   0  0  0  0  0  0  0  0  0  0  0  0
   -1.6407    0.6867   -0.0033 C   0  0  0  0  0  0  0  0  0  0  0  0
   -3.0089    0.6439    0.1318 C   0  0  0  0  0  0  0  0  0  0  0  0
   -3.8203    1.8096    0.1057 N   0  0  0  0  0  4  0  0  0  0  0  0
   -3.4879    2.8586   -0.5024 O   0  0  0  0  0  0  0  0  0  0  0  0
   -5.0301    1.8036    0.7828 O   0  0  0  0  0  1  0  0  0  0  0  0
  1  2  1  0
  2  3  2  0
  3  4  1  0
  4  5  2  0
  5  6  1  0
  6  7  2  0
  6  8  1  0
  8  9  1  0
  9 10  1  0
 10 11  1  0
 11 12  1  0
 12 13  1  0
 13 14  1  0
 14 15  1  0
  5 16  1  0
 16 17  2  0
 17 18  1  0
 18 19  2  0
 18 20  1  0
 17  2  1  0
 15  9  1  0
M  CHG  2  18   1  20  -1
M  END
>  <zinc_id>  (1) 
ZINC000000102050

>  <smiles>  (1) 
Cc1ccc(C(=O)NC2CCCCCC2)cc1[N+](=O)[O-]

$$$$
