
     RDKit          3D

 21 23  0  0  0  0  0  0  0  0999 V2000
   -2.7654    0.5480    2.0184 C   0  0  0  0  0  0  0  0  0  0  0  0
   -3.0455   -0.8344    1.1521 C   0  0  1  0  0  0  0  0  0  0  0  0
   -4.6623   -0.5393    1.0304 C   0  0  0  0  0  0  0  0  0  0  0  0
   -5.0964   -1.2271   -0.2072 C   0  0  0  0  0  0  0  0  0  0  0  0
   -5.8768   -2.2204   -0.2044 O   0  0  0  0  0  0  0  0  0  0  0  0
   -4.5292   -0.6293   -1.3521 N   0  0  0  0  0  0  0  0  0  0  0  0
   -3.2717   -0.1538   -1.2430 N   0  0  0  0  0  0  0  0  0  0  0  0
   -2.5640   -0.1913   -0.2347 C   0  0  0  0  0  0  0  0  0  0  0  0
   -1.1902    0.3421   -0.1704 C   0  0  0  0  0  0  0  0  0  0  0  0
   -0.5083    0.2421    1.0020 C   0  0  0  0  0  0  0  0  0  0  0  0
    0.7913    0.7312    1.1111 C   0  0  0  0  0  0  0  0  0  0  0  0
    1.4214    1.3258    0.0465 C   0  0  0  0  0  0  0  0  0  0  0  0
    3.0890    1.9562    0.1777 S   0  0  0  0  0  0  0  0  0  0  0  0
    4.2680    0.6853   -0.2533 C   0  0  0  0  0  0  0  0  0  0  0  0
    5.5976    0.8593   -0.2489 N   0  0  0  0  0  0  0  0  0  0  0  0
    6.2324   -0.2716   -0.6173 C   0  0  0  0  0  0  0  0  0  0  0  0
    5.2248   -1.1886   -0.8603 C   0  0  0  0  0  0  0  0  0  0  0  0
    4.0304   -0.5782   -0.6302 N   0  0  0  0  0  0  0  0  0  0  0  0
    2.7343   -1.2030   -0.7734 C   0  0  0  0  0  0  0  0  0  0  0  0
    0.7033    1.4145   -1.1360 C   0  0  0  0  0  0  0  0  0  0  0  0
   -0.5827    0.9326   -1.2507 C   0  0  0  0  0  0  0  0  0  0  0  0
  2  1  1  1
  2  3  1  0
  3  4  1  0
  4  5  2  0
  4  6  1  0
  6  7  1  0
  7  8  2  0
  8  9  1  0
  9 10  2  0
 10 11  1  0
 11 12  2  0
 12 13  1  0
 13 14  1  0
 14 15  2  0
 15 16  1  0
 16 17  2  0
 17 18  1  0
 18 19  1  0
 12 20  1  0
 20 21  2  0
  8  2  1  0
 21  9  1  0
 18 14  1  0
M  END
>  <zinc_id>  (1) 
ZINC000000011761

>  <smiles>  (1) 
C[C@H]1CC(=O)NN=C1c1ccc(Sc2nccn2C)cc1

$$$$
