
     RDKit          3D

 22 24  0  0  0  0  0  0  0  0999 V2000
   -4.8862   -0.2791   -1.4304 C   0  0  0  0  0  0  0  0  0  0  0  0
   -3.8198   -1.0926   -0.9845 O   0  0  0  0  0  0  0  0  0  0  0  0
   -2.5546   -0.5409   -0.8599 C   0  0  0  0  0  0  0  0  0  0  0  0
   -2.3465    0.7802   -1.1673 C   0  0  0  0  0  0  0  0  0  0  0  0
   -1.0283    1.2237   -1.0026 C   0  0  0  0  0  0  0  0  0  0  0  0
   -0.0333    0.4359   -0.5821 C   0  0  0  0  0  0  0  0  0  0  0  0
   -0.2935   -0.8748   -0.2870 C   0  0  0  0  0  0  0  0  0  0  0  0
   -1.5538   -1.3795   -0.4216 C   0  0  0  0  0  0  0  0  0  0  0  0
   -1.8649   -2.7271   -0.1275 O   0  0  0  0  0  0  0  0  0  0  0  0
   -0.8300   -3.5686    0.3189 C   0  0  0  0  0  0  0  0  0  0  0  0
    1.4410    0.9545   -0.5014 C   0  0  2  0  0  0  0  0  0  0  0  0
    1.8681    0.1816    0.8295 C   0  0  0  0  0  0  0  0  0  0  0  0
    1.8011    0.7400    2.0372 C   0  0  0  0  0  0  0  0  0  0  0  0
    2.1711    0.0118    3.1494 C   0  0  0  0  0  0  0  0  0  0  0  0
    2.6060   -1.2799    3.0186 C   0  0  0  0  0  0  0  0  0  0  0  0
    2.6686   -1.8378    1.7684 C   0  0  0  0  0  0  0  0  0  0  0  0
    2.3023   -1.1249    0.6377 C   0  0  0  0  0  0  0  0  0  0  0  0
    2.3850   -1.7344   -0.7217 C   0  0  0  0  0  0  0  0  0  0  0  0
    1.1820    2.4133    0.1550 C   0  0  0  0  0  0  0  0  0  0  0  0
    0.5191    3.0976   -0.9788 C   0  0  0  0  0  0  0  0  0  0  0  0
    1.0737    3.9747   -1.6151 O   0  0  0  0  0  0  0  0  0  0  0  0
   -0.8069    2.6263   -1.2348 N   0  0  0  0  0  0  0  0  0  0  0  0
  1  2  1  0
  2  3  1  0
  3  4  2  0
  4  5  1  0
  5  6  2  0
  6  7  1  0
  7  8  2  0
  8  9  1  0
  9 10  1  0
  6 11  1  0
 11 12  1  1
 12 13  2  0
 13 14  1  0
 14 15  2  0
 15 16  1  0
 16 17  2  0
 17 18  1  0
 11 19  1  0
 19 20  1  0
 20 21  2  0
 20 22  1  0
  8  3  1  0
 17 12  1  0
 22  5  1  0
M  END
>  <zinc_id>  (1) 
ZINC000000621387

>  <smiles>  (1) 
COc1cc2c(cc1OC)[C@H](c1ccccc1C)CC(=O)N2

$$$$
