
     RDKit          3D

 19 21  0  0  0  0  0  0  0  0999 V2000
    4.8009   -1.4392   -0.0847 C   0  0  0  0  0  0  0  0  0  0  0  0
    3.7738   -0.8395    0.8242 C   0  0  0  0  0  0  0  0  0  0  0  0
    3.4203   -1.6983    2.0107 C   0  0  0  0  0  0  0  0  0  0  0  0
    4.3536    0.4630    1.4186 C   0  0  0  0  0  0  0  0  0  0  0  0
    2.4985   -0.5115    0.1043 C   0  0  0  0  0  0  0  0  0  0  0  0
    2.4690   -0.2400   -1.2314 C   0  0  0  0  0  0  0  0  0  0  0  0
    1.3180    0.1002   -1.9075 C   0  0  0  0  0  0  0  0  0  0  0  0
    0.1256    0.1728   -1.1954 C   0  0  0  0  0  0  0  0  0  0  0  0
   -1.1421    0.4883   -1.5711 N   0  0  0  0  0  0  0  0  0  0  0  0
   -1.9500    0.4316   -0.5312 C   0  0  0  0  0  0  0  0  0  0  0  0
   -1.1759    0.0635    0.5686 C   0  0  0  0  0  0  0  0  0  0  0  0
    0.1198   -0.0991    0.1695 C   0  0  0  0  0  0  0  0  0  0  0  0
    1.3041   -0.4345    0.7805 C   0  0  0  0  0  0  0  0  0  0  0  0
   -1.8745   -0.0734    1.8434 C   0  0  0  0  0  0  0  0  0  0  0  0
   -3.2198   -0.7103    1.6987 C   0  0  0  0  0  0  0  0  0  0  0  0
   -4.1223   -0.0102    0.7142 C   0  0  0  0  0  0  0  0  0  0  0  0
   -3.3849    0.6894   -0.3682 C   0  0  0  0  0  0  0  0  0  0  0  0
   -4.0186    1.5044   -1.1239 N   0  0  0  0  0  0  0  0  0  0  0  0
   -3.2953    2.1428   -2.1194 O   0  0  0  0  0  0  0  0  0  0  0  0
  1  2  1  0
  2  3  1  0
  2  4  1  0
  2  5  1  0
  5  6  2  0
  6  7  1  0
  7  8  2  0
  8  9  1  0
  9 10  1  0
 10 11  2  0
 11 12  1  0
 12 13  2  0
 11 14  1  0
 14 15  1  0
 15 16  1  0
 16 17  1  0
 17 18  2  0
 18 19  1  0
 13  5  1  0
 12  8  1  0
 17 10  1  0
M  END
>  <zinc_id>  (1) 
ZINC000000173761

>  <smiles>  (1) 
CC(C)(C)c1ccc2[nH]c3c(c2c1)CCC/C3=N/O

$$$$
