
     RDKit          3D

 22 24  0  0  0  0  0  0  0  0999 V2000
   -2.0634   -0.5698    2.7631 C   0  0  0  0  0  0  0  0  0  0  0  0
   -2.8678    0.4938    2.0651 C   0  0  0  0  0  0  0  0  0  0  0  0
   -3.3176    0.1768    0.6925 C   0  0  0  0  0  0  0  0  0  0  0  0
   -4.6803    0.1598    0.4220 C   0  0  0  0  0  0  0  0  0  0  0  0
   -5.1215   -0.1337   -0.8525 C   0  0  0  0  0  0  0  0  0  0  0  0
   -4.1854   -0.4066   -1.8395 C   0  0  0  0  0  0  0  0  0  0  0  0
   -2.8316   -0.3823   -1.5398 C   0  0  0  0  0  0  0  0  0  0  0  0
   -2.3798   -0.0932   -0.2819 C   0  0  0  0  0  0  0  0  0  0  0  0
   -1.0131   -0.0538    0.0816 N   0  0  0  0  0  0  0  0  0  0  0  0
    0.0536   -0.3052   -0.7977 C   0  0  0  0  0  0  0  0  0  0  0  0
   -0.2010   -0.5862   -1.9934 O   0  0  0  0  0  0  0  0  0  0  0  0
    1.4615   -0.2546   -0.3821 C   0  0  0  0  0  0  0  0  0  0  0  0
    1.8311    0.0437    0.9026 C   0  0  0  0  0  0  0  0  0  0  0  0
    3.1611    0.0795    1.2462 C   0  0  0  0  0  0  0  0  0  0  0  0
    4.1743   -0.1747    0.3465 C   0  0  0  0  0  0  0  0  0  0  0  0
    5.5502   -0.1340    0.7166 N   0  0  0  0  0  4  0  0  0  0  0  0
    6.3922   -0.3780   -0.1669 O   0  0  0  0  0  0  0  0  0  0  0  0
    5.9595    0.1605    1.9915 O   0  0  0  0  0  1  0  0  0  0  0  0
    3.7807   -0.4726   -0.9400 C   0  0  0  0  0  0  0  0  0  0  0  0
    2.4549   -0.5124   -1.2994 C   0  0  0  0  0  0  0  0  0  0  0  0
   -3.6822    1.3767    2.9353 C   0  0  0  0  0  0  0  0  0  0  0  0
   -2.4754    1.9662    2.3152 C   0  0  0  0  0  0  0  0  0  0  0  0
  1  2  1  0
  2  3  1  0
  3  4  2  0
  4  5  1  0
  5  6  2  0
  6  7  1  0
  7  8  2  0
  8  9  1  0
  9 10  1  0
 10 11  2  0
 10 12  1  0
 12 13  2  0
 13 14  1  0
 14 15  2  0
 15 16  1  0
 16 17  2  0
 16 18  1  0
 15 19  1  0
 19 20  2  0
  2 21  1  0
 21 22  1  0
 22  2  1  0
  8  3  1  0
 20 12  1  0
M  CHG  2  16   1  18  -1
M  END
>  <zinc_id>  (1) 
ZINC000000312965

>  <smiles>  (1) 
CC1(c2ccccc2NC(=O)c2ccc([N+](=O)[O-])cc2)CC1

$$$$
