
     RDKit          3D

 23 27  0  0  0  0  0  0  0  0999 V2000
    1.0368   -1.2232   -2.1367 C   0  0  0  0  0  0  0  0  0  0  0  0
    0.8024   -0.6725   -0.6306 C   0  0  1  0  0  0  0  0  0  0  0  0
    1.1310   -1.7456    0.2180 C   0  0  0  0  0  0  0  0  0  0  0  0
    2.2367   -1.8959    0.8518 C   0  0  0  0  0  0  0  0  0  0  0  0
    3.2203   -0.8451    0.6880 C   0  0  0  0  0  0  0  0  0  0  0  0
    4.4416   -0.7754    1.1758 O   0  0  0  0  0  0  0  0  0  0  0  0
    5.0203    0.3149    0.7769 C   0  0  0  0  0  0  0  0  0  0  0  0
    4.1065    1.0010   -0.0243 C   0  0  0  0  0  0  0  0  0  0  0  0
    2.9557    0.2137   -0.0480 C   0  0  0  0  0  0  0  0  0  0  0  0
    1.5808    0.6429   -0.6615 C   0  0  2  0  0  0  0  0  0  0  0  0
    1.0662    1.4183    0.6520 C   0  0  0  0  0  0  0  0  0  0  0  0
    0.0430    0.6438    1.3786 C   0  0  0  0  0  0  0  0  0  0  0  0
   -1.0778    0.4559    0.5037 C   0  0  1  0  0  0  0  0  0  0  0  0
   -1.7477    1.7001    0.1160 C   0  0  0  0  0  0  0  0  0  0  0  0
   -3.0747    1.1745   -0.6632 C   0  0  1  0  0  0  0  0  0  0  0  0
   -2.3270    0.7109   -2.0143 C   0  0  0  0  0  0  0  0  0  0  0  0
   -0.8497    0.6329   -1.8712 C   0  0  0  0  0  0  0  0  0  0  0  0
   -0.7800   -0.4998   -0.7260 C   0  0  1  0  0  0  0  0  0  0  0  0
   -3.1829   -0.2571    0.0690 C   0  0  2  0  0  0  0  0  0  0  0  0
   -3.1258   -1.2727   -0.7858 O   0  0  0  0  0  0  0  0  0  0  0  0
   -4.5682   -0.2707    0.7378 C   0  0  0  0  0  0  0  0  0  0  0  0
   -4.6883    0.7726    1.6461 O   0  0  0  0  0  0  0  0  0  0  0  0
   -2.2193   -0.2235    1.1985 C   0  0  0  0  0  0  0  0  0  0  0  0
  2  1  1  6
  2  3  1  0
  3  4  2  0
  4  5  1  0
  5  6  1  0
  6  7  1  0
  7  8  2  0
  8  9  1  0
  9 10  1  0
 10 11  1  1
 11 12  1  0
 13 12  1  1
 13 14  1  0
 14 15  1  0
 15 16  1  6
 16 17  1  0
 18 17  1  6
 15 19  1  0
 19 20  1  6
 19 21  1  0
 21 22  1  0
 19 23  1  0
 10  2  1  0
 18 13  1  0
 18  2  1  0
  9  5  2  0
 23 13  1  0
M  END
>  <zinc_id>  (1) 
ZINC000000403003

>  <smiles>  (1) 
C[C@@]12C=Cc3occc3[C@@H]1CC[C@@]13C[C@@H](CC[C@H]12)[C@](O)(CO)C3

$$$$
