
     RDKit          3D

 22 24  0  0  0  0  0  0  0  0999 V2000
   -1.2802   -3.7526    1.9420 O   0  0  0  0  0  0  0  0  0  0  0  0
   -1.3761   -2.8417    1.0931 N   0  0  0  0  0  4  0  0  0  0  0  0
   -2.5751   -2.6512    0.4953 O   0  0  0  0  0  1  0  0  0  0  0  0
   -0.2147   -2.0717    0.8182 C   0  0  0  0  0  0  0  0  0  0  0  0
    1.0771   -2.5822    0.9819 C   0  0  0  0  0  0  0  0  0  0  0  0
    2.2008   -1.8352    0.7155 C   0  0  0  0  0  0  0  0  0  0  0  0
    2.0216   -0.5374    0.2716 C   0  0  0  0  0  0  0  0  0  0  0  0
    3.1177    0.3129   -0.0300 N   0  0  0  0  0  0  0  0  0  0  0  0
    4.4450   -0.2349    0.1445 C   0  0  0  0  0  0  0  0  0  0  0  0
    5.4862    0.8097    0.4066 C   0  0  0  0  0  0  0  0  0  0  0  0
    5.2408    2.0902   -0.3519 C   0  0  0  0  0  0  0  0  0  0  0  0
    3.8734    2.6496   -0.0059 C   0  0  0  0  0  0  0  0  0  0  0  0
    2.8549    1.6460   -0.4834 C   0  0  0  0  0  0  0  0  0  0  0  0
    0.7470   -0.0404    0.1124 C   0  0  0  0  0  0  0  0  0  0  0  0
   -0.3844   -0.7804    0.3765 C   0  0  0  0  0  0  0  0  0  0  0  0
   -1.7011   -0.2815    0.2171 N   0  0  0  0  0  0  0  0  0  0  0  0
   -1.8321    1.0847   -0.2511 C   0  0  0  0  0  0  0  0  0  0  0  0
   -3.2405    1.5015   -0.3810 C   0  0  0  0  0  0  0  0  0  0  0  0
   -3.9663    1.3362   -1.5430 C   0  0  0  0  0  0  0  0  0  0  0  0
   -5.2326    1.8319   -1.3113 C   0  0  0  0  0  0  0  0  0  0  0  0
   -5.2228    2.2801   -0.0110 C   0  0  0  0  0  0  0  0  0  0  0  0
   -4.0385    2.0663    0.4921 O   0  0  0  0  0  0  0  0  0  0  0  0
  1  2  2  0
  2  3  1  0
  2  4  1  0
  4  5  2  0
  5  6  1  0
  6  7  2  0
  7  8  1  0
  8  9  1  0
  9 10  1  0
 10 11  1  0
 11 12  1  0
 12 13  1  0
  7 14  1  0
 14 15  2  0
 15 16  1  0
 16 17  1  0
 17 18  1  0
 18 19  2  0
 19 20  1  0
 20 21  2  0
 21 22  1  0
 15  4  1  0
 22 18  1  0
 13  8  1  0
M  CHG  2   2   1   3  -1
M  END
>  <zinc_id>  (1) 
ZINC000004104321

>  <smiles>  (1) 
O=[N+]([O-])c1ccc(N2CCCCC2)cc1NCc1ccco1

$$$$
