
     RDKit          3D

 18 19  0  0  0  0  0  0  0  0999 V2000
   -3.9909    0.3962    1.9007 C   0  0  0  0  0  0  0  0  0  0  0  0
   -3.0054    0.6022    0.8067 C   0  0  0  0  0  0  0  0  0  0  0  0
   -2.6411    2.0510    0.5762 C   0  0  0  0  0  0  0  0  0  0  0  0
   -1.7195   -0.1157    1.1260 C   0  0  0  0  0  0  0  0  0  0  0  0
   -0.7332   -0.1763    0.2513 C   0  0  0  0  0  0  0  0  0  0  0  0
    0.4321   -0.8345    0.5577 N   0  0  0  0  0  0  0  0  0  0  0  0
    1.7130   -0.2717    0.3711 C   0  0  0  0  0  0  0  0  0  0  0  0
    1.9124    0.9880   -0.1350 C   0  0  0  0  0  0  0  0  0  0  0  0
    3.1926    1.4855   -0.2950 C   0  0  0  0  0  0  0  0  0  0  0  0
    4.2891    0.7226    0.0518 C   0  0  0  0  0  0  0  0  0  0  0  0
    4.1068   -0.5593    0.5674 C   0  0  0  0  0  0  0  0  0  0  0  0
    2.8071   -1.0283    0.7152 C   0  0  0  0  0  0  0  0  0  0  0  0
    2.6319   -2.3127    1.2322 O   0  0  0  0  0  0  0  0  0  0  0  0
   -1.0266    0.5395   -1.0801 C   0  0  1  0  0  0  0  0  0  0  0  0
    0.2629   -0.4032   -2.3079 Br  0  0  0  0  0  0  0  0  0  0  0  0
   -2.3130   -0.1962   -1.4389 C   0  0  0  0  0  0  0  0  0  0  0  0
   -2.4647   -0.9255   -2.3735 O   0  0  0  0  0  0  0  0  0  0  0  0
   -3.4533    0.0386   -0.5259 C   0  0  0  0  0  0  0  0  0  0  0  0
  1  2  1  0
  2  3  1  0
  2  4  1  0
  4  5  2  0
  5  6  1  0
  6  7  1  0
  7  8  2  0
  8  9  1  0
  9 10  2  0
 10 11  1  0
 11 12  2  0
 12 13  1  0
  5 14  1  0
 14 15  1  6
 14 16  1  0
 16 17  2  0
 16 18  1  0
 18  2  1  0
 12  7  1  0
M  END
>  <zinc_id>  (1) 
ZINC000002504446

>  <smiles>  (1) 
CC1(C)C=C(Nc2ccccc2O)[C@@H](Br)C(=O)C1

$$$$
