
     RDKit          3D

 19 19  0  0  0  0  0  0  0  0999 V2000
    3.4932    1.9446   -2.3005 C   0  0  0  0  0  0  0  0  0  0  0  0
    3.5296    1.1308   -1.4092 C   0  0  0  0  0  0  0  0  0  0  0  0
    3.5640    0.1207   -0.3289 C   0  0  2  0  0  0  0  0  0  0  0  0
    3.8547    0.7705    1.0108 C   0  0  0  0  0  0  0  0  0  0  0  0
    4.5998   -0.8895   -0.7088 C   0  0  0  0  0  0  0  0  0  0  0  0
    4.7628   -1.9912    0.2864 C   0  0  0  0  0  0  0  0  0  0  0  0
    2.2651   -0.4753   -0.2222 O   0  0  0  0  0  0  0  0  0  0  0  0
    1.1437    0.2868    0.0699 C   0  0  0  0  0  0  0  0  0  0  0  0
    1.2654    1.5297    0.2458 O   0  0  0  0  0  0  0  0  0  0  0  0
   -0.1569   -0.2545    0.1855 N   0  0  0  0  0  0  0  0  0  0  0  0
   -1.3179    0.4768    0.4789 C   0  0  0  0  0  0  0  0  0  0  0  0
   -1.1955    1.7338    0.6569 O   0  0  0  0  0  0  0  0  0  0  0  0
   -2.6525   -0.1024    0.5939 C   0  0  0  0  0  0  0  0  0  0  0  0
   -3.4654   -0.1950   -0.5161 C   0  0  0  0  0  0  0  0  0  0  0  0
   -4.7353   -0.7288   -0.4856 C   0  0  0  0  0  0  0  0  0  0  0  0
   -5.2118   -1.1926    0.7214 C   0  0  0  0  0  0  0  0  0  0  0  0
   -4.4405   -1.1240    1.8620 C   0  0  0  0  0  0  0  0  0  0  0  0
   -3.1682   -0.5785    1.7823 C   0  0  0  0  0  0  0  0  0  0  0  0
   -2.1342   -0.4619    3.1996 Cl  0  0  0  0  0  0  0  0  0  0  0  0
  1  2  3  0
  2  3  1  0
  3  4  1  1
  3  5  1  0
  5  6  1  0
  3  7  1  0
  7  8  1  0
  8  9  2  0
  8 10  1  0
 10 11  1  0
 11 12  2  0
 11 13  1  0
 13 14  2  0
 14 15  1  0
 15 16  2  0
 16 17  1  0
 17 18  2  0
 18 19  1  0
 18 13  1  0
M  END
>  <zinc_id>  (1) 
ZINC000002161451

>  <smiles>  (1) 
C#C[C@](C)(CC)OC(=O)NC(=O)c1ccccc1Cl

$$$$
