
     RDKit          3D

 20 21  0  0  0  0  0  0  0  0999 V2000
    6.1468   -1.3396    0.3789 C   0  0  0  0  0  0  0  0  0  0  0  0
    5.4471   -0.2636   -0.1915 O   0  0  0  0  0  0  0  0  0  0  0  0
    4.0599   -0.1534   -0.1889 C   0  0  0  0  0  0  0  0  0  0  0  0
    3.2378   -1.1102    0.3853 C   0  0  0  0  0  0  0  0  0  0  0  0
    1.8590   -0.9643    0.3674 C   0  0  0  0  0  0  0  0  0  0  0  0
    1.3438    0.1556   -0.2361 C   0  0  0  0  0  0  0  0  0  0  0  0
   -0.1183    0.3425   -0.2731 C   0  0  0  0  0  0  0  0  0  0  0  0
   -0.6207    1.3568   -0.8180 O   0  0  0  0  0  0  0  0  0  0  0  0
   -1.0077   -0.6071    0.3001 N   0  0  0  0  0  0  0  0  0  0  0  0
   -2.4252   -0.3976    0.2484 C   0  0  0  0  0  0  0  0  0  0  0  0
   -2.9932    0.7075   -0.3445 C   0  0  0  0  0  0  0  0  0  0  0  0
   -4.3537    0.9154   -0.3980 C   0  0  0  0  0  0  0  0  0  0  0  0
   -4.9492    2.1247   -1.0480 C   0  0  0  0  0  0  0  0  0  0  0  0
   -5.1706   -0.0382    0.1740 C   0  0  0  0  0  0  0  0  0  0  0  0
   -4.6359   -1.1413    0.7673 C   0  0  0  0  0  0  0  0  0  0  0  0
   -3.2612   -1.3367    0.8132 C   0  0  0  0  0  0  0  0  0  0  0  0
   -2.8137   -2.4878    1.4374 O   0  0  0  0  0  0  0  0  0  0  0  0
    2.1467    1.0959   -0.8001 C   0  0  0  0  0  0  0  0  0  0  0  0
    3.5296    0.9691   -0.7932 C   0  0  0  0  0  0  0  0  0  0  0  0
    4.5786    2.1723   -1.5159 Cl  0  0  0  0  0  0  0  0  0  0  0  0
  1  2  1  0
  2  3  1  0
  3  4  2  0
  4  5  1  0
  5  6  2  0
  6  7  1  0
  7  8  2  0
  7  9  1  0
  9 10  1  0
 10 11  2  0
 11 12  1  0
 12 13  1  0
 12 14  2  0
 14 15  1  0
 15 16  2  0
 16 17  1  0
  6 18  1  0
 18 19  2  0
 19 20  1  0
 19  3  1  0
 16 10  1  0
M  END
>  <zinc_id>  (1) 
ZINC000000367848

>  <smiles>  (1) 
COc1ccc(C(=O)Nc2cc(C)ccc2O)cc1Cl

$$$$
