
     RDKit          3D

 20 22  0  0  0  0  0  0  0  0999 V2000
    5.3499    2.2453   -1.2478 C   0  0  0  0  0  0  0  0  0  0  0  0
    4.7682    1.0285   -1.2096 C   0  0  0  0  0  0  0  0  0  0  0  0
    4.2392    0.5392    0.0868 C   0  0  0  0  0  0  0  0  0  0  0  0
    2.8183    0.2704    0.0463 N   0  0  0  0  0  0  0  0  0  0  0  0
    2.2534   -0.9622   -0.2977 C   0  0  0  0  0  0  0  0  0  0  0  0
    2.6144   -2.1128   -0.2168 O   0  0  0  0  0  0  0  0  0  0  0  0
    0.8379   -0.5334   -0.9087 C   0  0  1  0  0  0  0  0  0  0  0  0
   -0.0184   -1.6932   -0.0363 C   0  0  0  0  0  0  0  0  0  0  0  0
   -1.4253   -1.4862   -0.4540 C   0  0  0  0  0  0  0  0  0  0  0  0
   -2.1336   -2.2825   -1.3246 C   0  0  0  0  0  0  0  0  0  0  0  0
   -3.3715   -1.8085   -1.4762 N   0  0  0  0  0  0  0  0  0  0  0  0
   -3.5084   -0.7033   -0.7208 C   0  0  0  0  0  0  0  0  0  0  0  0
   -4.5672    0.1611   -0.5136 C   0  0  0  0  0  0  0  0  0  0  0  0
   -4.4432    1.2526    0.3381 C   0  0  0  0  0  0  0  0  0  0  0  0
   -3.2307    1.4430    0.9673 C   0  0  0  0  0  0  0  0  0  0  0  0
   -2.1965    0.5825    0.7532 C   0  0  0  0  0  0  0  0  0  0  0  0
   -2.3030   -0.4920   -0.0788 C   0  0  0  0  0  0  0  0  0  0  0  0
    0.5524    0.5640    0.1990 N   0  0  0  0  0  0  0  0  0  0  0  0
    1.7863    1.2055    0.3493 C   0  0  0  0  0  0  0  0  0  0  0  0
    1.9779    2.7819    0.8043 S   0  0  0  0  0  0  0  0  0  0  0  0
  1  2  2  0
  2  3  1  0
  3  4  1  0
  4  5  1  0
  5  6  2  0
  5  7  1  0
  7  8  1  1
  8  9  1  0
  9 10  2  0
 10 11  1  0
 11 12  1  0
 12 13  2  0
 13 14  1  0
 14 15  2  0
 15 16  1  0
 16 17  2  0
  7 18  1  0
 18 19  1  0
 19 20  2  0
 19  4  1  0
 17  9  1  0
 17 12  1  0
M  END
>  <zinc_id>  (1) 
ZINC000000054337

>  <smiles>  (1) 
C=CCN1C(=O)[C@@H](Cc2c[nH]c3ccccc23)NC1=S

$$$$
