
     RDKit          3D

 21 23  0  0  0  0  0  0  0  0999 V2000
    5.0592    1.0948   -1.4121 C   0  0  0  0  0  0  0  0  0  0  0  0
    4.4236    0.3476   -0.3934 O   0  0  0  0  0  0  0  0  0  0  0  0
    3.0495    0.1017   -0.4252 C   0  0  0  0  0  0  0  0  0  0  0  0
    2.2344    0.5662   -1.4402 C   0  0  0  0  0  0  0  0  0  0  0  0
    0.8796    0.3193   -1.4644 C   0  0  0  0  0  0  0  0  0  0  0  0
    0.3455   -0.4174   -0.4305 C   0  0  0  0  0  0  0  0  0  0  0  0
   -1.0932   -0.7331   -0.3682 C   0  0  0  0  0  0  0  0  0  0  0  0
   -1.8153    0.5917   -0.1926 C   0  0  0  0  0  0  0  0  0  0  0  0
   -1.7799    1.5428   -1.1777 C   0  0  0  0  0  0  0  0  0  0  0  0
   -2.7178    2.7935   -0.4965 S   0  0  0  0  0  0  0  0  0  0  0  0
   -3.0971    2.0447    0.9848 C   0  0  0  0  0  0  0  0  0  0  0  0
   -3.8890    2.5508    2.0886 N   0  0  0  0  0  0  0  0  0  0  0  0
   -2.4893    0.8759    0.8877 N   0  0  0  0  0  0  0  0  0  0  0  0
   -1.4361   -1.6962    0.7232 C   0  0  0  0  0  0  0  0  0  0  0  0
   -2.8196   -2.1539    0.3522 C   0  0  0  0  0  0  0  0  0  0  0  0
   -2.9774   -1.9237   -1.1386 C   0  0  0  0  0  0  0  0  0  0  0  0
   -1.6094   -1.4153   -1.6098 C   0  0  0  0  0  0  0  0  0  0  0  0
    1.1585   -0.8804    0.5815 C   0  0  0  0  0  0  0  0  0  0  0  0
    2.5060   -0.6339    0.6040 C   0  0  0  0  0  0  0  0  0  0  0  0
    3.3174   -1.1127    1.6412 O   0  0  0  0  0  0  0  0  0  0  0  0
    2.7504   -1.8623    2.6859 C   0  0  0  0  0  0  0  0  0  0  0  0
  1  2  1  0
  2  3  1  0
  3  4  2  0
  4  5  1  0
  5  6  2  0
  6  7  1  0
  7  8  1  0
  8  9  2  0
  9 10  1  0
 10 11  1  0
 11 12  1  0
 11 13  2  0
  7 14  1  0
 14 15  1  0
 15 16  1  0
 16 17  1  0
  6 18  1  0
 18 19  2  0
 19 20  1  0
 20 21  1  0
 19  3  1  0
 17  7  1  0
 13  8  1  0
M  END
>  <zinc_id>  (1) 
ZINC000000983278

>  <smiles>  (1) 
COc1ccc(C2(c3csc(N)n3)CCCC2)cc1OC

$$$$
