
     RDKit          3D

 20 22  0  0  0  0  0  0  0  0999 V2000
    6.0733   -0.8283   -0.1314 C   0  0  0  0  0  0  0  0  0  0  0  0
    5.2639    0.3866    0.0052 N   0  0  0  0  0  0  0  0  0  0  0  0
    5.9410    1.6688    0.1203 C   0  0  0  0  0  0  0  0  0  0  0  0
    3.8320    0.3197    0.0243 C   0  0  0  0  0  0  0  0  0  0  0  0
    3.0825    0.5498   -1.1076 C   0  0  0  0  0  0  0  0  0  0  0  0
    1.6822    0.4575   -1.0607 C   0  0  0  0  0  0  0  0  0  0  0  0
    1.0451    0.1383    0.1078 C   0  0  0  0  0  0  0  0  0  0  0  0
   -0.3914    0.0263    0.1596 C   0  0  0  0  0  0  0  0  0  0  0  0
   -1.2815    0.2221   -0.8519 N   0  0  0  0  0  0  0  0  0  0  0  0
   -2.5405    0.0038   -0.4109 C   0  0  0  0  0  0  0  0  0  0  0  0
   -3.7881    0.0477   -0.9884 C   0  0  0  0  0  0  0  0  0  0  0  0
   -4.9567   -0.2378   -0.2977 C   0  0  0  0  0  0  0  0  0  0  0  0
   -6.2198   -0.1718   -0.9677 N   0  0  0  0  0  0  0  0  0  0  0  0
   -4.8556   -0.5798    1.0299 C   0  0  0  0  0  0  0  0  0  0  0  0
   -3.6220   -0.6325    1.6386 C   0  0  0  0  0  0  0  0  0  0  0  0
   -2.4595   -0.3412    0.9199 C   0  0  0  0  0  0  0  0  0  0  0  0
   -1.1601   -0.3140    1.2167 N   0  0  0  0  0  0  0  0  0  0  0  0
   -0.6153   -0.6231    2.5458 C   0  0  0  0  0  0  0  0  0  0  0  0
    1.8013   -0.0863    1.2224 C   0  0  0  0  0  0  0  0  0  0  0  0
    3.1694   -0.0057    1.2160 C   0  0  0  0  0  0  0  0  0  0  0  0
  1  2  1  0
  2  3  1  0
  2  4  1  0
  4  5  2  0
  5  6  1  0
  6  7  2  0
  7  8  1  0
  8  9  2  0
  9 10  1  0
 10 11  2  0
 11 12  1  0
 12 13  1  0
 12 14  2  0
 14 15  1  0
 15 16  2  0
 16 17  1  0
 17 18  1  0
  7 19  1  0
 19 20  2  0
 20  4  1  0
 17  8  1  0
 16 10  1  0
M  END
>  <zinc_id>  (1) 
ZINC000000346712

>  <smiles>  (1) 
CN(C)c1ccc(-c2nc3cc(N)ccc3n2C)cc1

$$$$
