
     RDKit          3D

 20 22  0  0  0  0  0  0  0  0999 V2000
    4.4291    3.1316    0.5355 C   0  0  0  0  0  0  0  0  0  0  0  0
    3.2251    2.2314    0.2720 C   0  0  0  0  0  0  0  0  0  0  0  0
    3.6908    0.9991   -0.2540 O   0  0  0  0  0  0  0  0  0  0  0  0
    2.8243   -0.0152   -0.5893 C   0  0  0  0  0  0  0  0  0  0  0  0
    3.3408   -1.1879   -1.0956 C   0  0  0  0  0  0  0  0  0  0  0  0
    2.4675   -2.1984   -1.4288 C   0  0  0  0  0  0  0  0  0  0  0  0
    1.1012   -2.0863   -1.2774 C   0  0  0  0  0  0  0  0  0  0  0  0
    0.0356   -2.8659   -1.5037 N   0  0  0  0  0  0  0  0  0  0  0  0
   -1.0898   -2.1989   -1.1507 C   0  0  0  0  0  0  0  0  0  0  0  0
   -2.4912   -2.6942   -1.2379 C   0  0  0  0  0  0  0  0  0  0  0  0
   -0.7573   -0.9589   -0.6841 C   0  0  0  0  0  0  0  0  0  0  0  0
   -1.6403    0.1174   -0.1874 C   0  0  0  0  0  0  0  0  0  0  0  0
   -2.1377    1.0555   -1.0552 C   0  0  0  0  0  0  0  0  0  0  0  0
   -3.0756    2.0426    0.0122 S   0  0  0  0  0  0  0  0  0  0  0  0
   -2.7615    1.1913    1.4557 C   0  0  0  0  0  0  0  0  0  0  0  0
   -3.2027    1.4080    2.8142 N   0  0  0  0  0  0  0  0  0  0  0  0
   -4.0766    2.5607    3.0035 C   0  0  0  0  0  0  0  0  0  0  0  0
   -1.9778    0.2225    1.0619 N   0  0  0  0  0  0  0  0  0  0  0  0
    0.6210   -0.8813   -0.7611 C   0  0  0  0  0  0  0  0  0  0  0  0
    1.4753    0.1268   -0.4274 C   0  0  0  0  0  0  0  0  0  0  0  0
  1  2  1  0
  2  3  1  0
  3  4  1  0
  4  5  2  0
  5  6  1  0
  6  7  2  0
  7  8  1  0
  8  9  1  0
  9 10  1  0
  9 11  2  0
 11 12  1  0
 12 13  2  0
 13 14  1  0
 14 15  1  0
 15 16  1  0
 16 17  1  0
 15 18  2  0
 11 19  1  0
 19 20  2  0
 20  4  1  0
 19  7  1  0
 18 12  1  0
M  END
>  <zinc_id>  (1) 
ZINC000002236712

>  <smiles>  (1) 
CCOc1ccc2[nH]c(C)c(-c3csc(NC)n3)c2c1

$$$$
