
     RDKit          3D

 20 23  0  0  0  0  0  0  0  0999 V2000
    4.7047    2.0306    0.9939 O   0  0  0  0  0  0  0  0  0  0  0  0
    4.0582    0.9878    0.3292 C   0  0  0  0  0  0  0  0  0  0  0  0
    4.8496    0.1087   -0.3651 C   0  0  0  0  0  0  0  0  0  0  0  0
    4.2509   -0.9334   -1.0340 C   0  0  0  0  0  0  0  0  0  0  0  0
    2.8916   -1.0614   -0.9872 C   0  0  0  0  0  0  0  0  0  0  0  0
    2.0625   -0.1856   -0.2914 C   0  0  0  0  0  0  0  0  0  0  0  0
    0.6924   -0.4284   -0.3238 N   0  0  0  0  0  0  0  0  0  0  0  0
   -0.2972    0.3460    0.3172 C   0  0  0  0  0  0  0  0  0  0  0  0
    0.1317    1.4039    1.0143 N   0  0  0  0  0  0  0  0  0  0  0  0
   -0.6553    2.2516    1.6863 C   0  0  0  0  0  0  0  0  0  0  0  0
   -1.9734    1.9864    1.6329 N   0  0  0  0  0  0  0  0  0  0  0  0
   -2.4642    0.9204    0.9364 C   0  0  0  0  0  0  0  0  0  0  0  0
   -4.0358    0.3185    0.6726 S   0  0  0  0  0  0  0  0  0  0  0  0
   -3.6510   -1.0264   -0.3071 C   0  0  0  0  0  0  0  0  0  0  0  0
   -2.3058   -0.9673   -0.4001 C   0  0  0  0  0  0  0  0  0  0  0  0
   -1.6703    0.0484    0.2467 C   0  0  0  0  0  0  0  0  0  0  0  0
   -1.9183   -2.1579   -1.2613 C   0  0  0  0  0  0  0  0  0  0  0  0
   -3.1274   -2.2941   -2.1529 C   0  0  0  0  0  0  0  0  0  0  0  0
   -4.2237   -2.1982   -1.0777 C   0  0  0  0  0  0  0  0  0  0  0  0
    2.6808    0.8502    0.3711 C   0  0  0  0  0  0  0  0  0  0  0  0
  1  2  1  0
  2  3  2  0
  3  4  1  0
  4  5  2  0
  5  6  1  0
  6  7  1  0
  7  8  1  0
  8  9  2  0
  9 10  1  0
 10 11  2  0
 11 12  1  0
 12 13  1  0
 13 14  1  0
 14 15  2  0
 15 16  1  0
 15 17  1  0
 17 18  1  0
 18 19  1  0
  6 20  2  0
 20  2  1  0
 16  8  1  0
 16 12  2  0
 19 14  1  0
M  END
>  <zinc_id>  (1) 
ZINC000000250259

>  <smiles>  (1) 
Oc1cccc(Nc2ncnc3sc4c(c23)CCC4)c1

$$$$
