
     RDKit          3D

 19 20  0  0  0  0  0  0  0  0999 V2000
   -5.2101    1.6108   -0.6153 C   0  0  0  0  0  0  0  0  0  0  0  0
   -4.9035    0.2531   -0.0364 C   0  0  0  0  0  0  0  0  0  0  0  0
   -5.4687    0.0898    1.3444 C   0  0  0  0  0  0  0  0  0  0  0  0
   -5.3658   -0.8412   -0.9813 C   0  0  0  0  0  0  0  0  0  0  0  0
   -3.4083    0.1456    0.0528 C   0  0  0  0  0  0  0  0  0  0  0  0
   -2.6264   -0.9648   -0.1210 C   0  0  0  0  0  0  0  0  0  0  0  0
   -1.3510   -0.8315   -0.0312 N   0  0  0  0  0  0  0  0  0  0  0  0
   -0.8186    0.3485    0.2249 C   0  0  0  0  0  0  0  0  0  0  0  0
    0.5763    0.7165    0.2716 N   0  0  0  0  0  0  0  0  0  0  0  0
    1.4996   -0.3523   -0.0748 C   0  0  0  0  0  0  0  0  0  0  0  0
    1.0646   -1.4877   -0.3811 O   0  0  0  0  0  0  0  0  0  0  0  0
    2.8947   -0.0607   -0.0647 C   0  0  0  0  0  0  0  0  0  0  0  0
    3.8618   -0.9982   -0.4586 C   0  0  0  0  0  0  0  0  0  0  0  0
    5.1990   -0.7233   -0.5087 C   0  0  0  0  0  0  0  0  0  0  0  0
    5.6484    0.5246   -0.1603 C   0  0  0  0  0  0  0  0  0  0  0  0
    4.7189    1.4812    0.2344 C   0  0  0  0  0  0  0  0  0  0  0  0
    3.3856    1.1723    0.2742 C   0  0  0  0  0  0  0  0  0  0  0  0
    2.5188    2.2150    0.6866 O   0  0  0  0  0  0  0  0  0  0  0  0
   -2.2152    1.3361    0.3446 S   0  0  0  0  0  0  0  0  0  0  0  0
  1  2  1  0
  2  3  1  0
  2  4  1  0
  2  5  1  0
  5  6  2  0
  6  7  1  0
  7  8  2  0
  8  9  1  0
  9 10  1  0
 10 11  2  0
 10 12  1  0
 12 13  2  0
 13 14  1  0
 14 15  2  0
 15 16  1  0
 16 17  2  0
 17 18  1  0
  8 19  1  0
 19  5  1  0
 17 12  1  0
M  END
>  <zinc_id>  (1) 
ZINC000000364511

>  <smiles>  (1) 
CC(C)(C)c1cnc(NC(=O)c2ccccc2O)s1

$$$$
