
     RDKit          3D

 20 22  0  0  0  0  0  0  0  0999 V2000
   -0.8135    4.0379   -0.5866 C   0  0  0  0  0  0  0  0  0  0  0  0
   -1.4646    2.6799   -0.4317 C   0  0  0  0  0  0  0  0  0  0  0  0
   -2.2694    2.7252    0.8532 C   0  0  0  0  0  0  0  0  0  0  0  0
   -0.4551    1.6750   -0.2907 N   0  0  0  0  0  0  0  0  0  0  0  0
   -0.7002    0.2987   -0.1422 C   0  0  0  0  0  0  0  0  0  0  0  0
    0.2146   -0.7205    0.0024 C   0  0  0  0  0  0  0  0  0  0  0  0
    1.6463   -0.5107    0.0259 C   0  0  0  0  0  0  0  0  0  0  0  0
    2.4049   -1.1618    0.9887 C   0  0  0  0  0  0  0  0  0  0  0  0
    3.7753   -1.0023    1.0629 C   0  0  0  0  0  0  0  0  0  0  0  0
    4.4417   -0.1835    0.1748 C   0  0  0  0  0  0  0  0  0  0  0  0
    5.8273   -0.0023    0.2250 O   0  0  0  0  0  0  0  0  0  0  0  0
    3.6687    0.4548   -0.7750 C   0  0  0  0  0  0  0  0  0  0  0  0
    2.3021    0.3044   -0.8596 C   0  0  0  0  0  0  0  0  0  0  0  0
   -0.4480   -1.8874    0.1118 N   0  0  0  0  0  0  0  0  0  0  0  0
   -1.7664   -1.6221    0.0386 C   0  0  0  0  0  0  0  0  0  0  0  0
   -2.8627   -2.4444    0.0945 C   0  0  0  0  0  0  0  0  0  0  0  0
   -4.1477   -1.9564   -0.0031 C   0  0  0  0  0  0  0  0  0  0  0  0
   -4.2810   -0.5944   -0.1607 C   0  0  0  0  0  0  0  0  0  0  0  0
   -3.1662    0.2038   -0.2132 C   0  0  0  0  0  0  0  0  0  0  0  0
   -1.9061   -0.2940   -0.1152 N   0  0  0  0  0  0  0  0  0  0  0  0
  1  2  1  0
  2  3  1  0
  2  4  1  0
  4  5  1  0
  5  6  2  0
  6  7  1  0
  7  8  2  0
  8  9  1  0
  9 10  2  0
 10 11  1  0
 10 12  1  0
 12 13  2  0
  6 14  1  0
 14 15  2  0
 15 16  1  0
 16 17  2  0
 17 18  1  0
 18 19  2  0
 19 20  1  0
 20  5  1  0
 13  7  1  0
 20 15  1  0
M  END
>  <zinc_id>  (1) 
ZINC000000413675

>  <smiles>  (1) 
CC(C)Nc1c(-c2ccc(O)cc2)nc2ccccn12

$$$$
