
     RDKit          3D

 22 23  0  0  0  0  0  0  0  0999 V2000
    6.0554   -0.3679   -1.2093 C   0  0  0  0  0  0  0  0  0  0  0  0
    4.7002   -0.2434   -0.5646 C   0  0  0  0  0  0  0  0  0  0  0  0
    4.0036    0.9214   -0.5040 C   0  0  0  0  0  0  0  0  0  0  0  0
    2.7548    0.8979    0.1265 C   0  0  0  0  0  0  0  0  0  0  0  0
    1.9617    2.1565    0.2141 C   0  0  0  0  0  0  0  0  0  0  0  0
    2.2535   -0.2643    0.6641 C   0  0  0  0  0  0  0  0  0  0  0  0
    0.9949   -0.2483    1.2890 N   0  0  0  0  0  0  0  0  0  0  0  0
   -0.2001   -0.4996    0.5702 C   0  0  0  0  0  0  0  0  0  0  0  0
   -0.1145   -0.7413   -0.6552 O   0  0  0  0  0  0  0  0  0  0  0  0
   -1.4805   -0.4684    1.2765 C   0  0  0  0  0  0  0  0  0  0  0  0
   -2.6671   -0.6804    0.4291 C   0  0  0  0  0  0  0  0  0  0  0  0
   -3.2046   -1.9699    0.3596 C   0  0  0  0  0  0  0  0  0  0  0  0
   -4.2883   -2.2205   -0.4505 C   0  0  0  0  0  0  0  0  0  0  0  0
   -4.8798   -1.2364   -1.2125 C   0  0  0  0  0  0  0  0  0  0  0  0
   -4.3536    0.0323   -1.1450 C   0  0  0  0  0  0  0  0  0  0  0  0
   -3.2454    0.3085   -0.3216 C   0  0  0  0  0  0  0  0  0  0  0  0
   -2.7346    1.6252   -0.2363 N   0  0  0  0  0  4  0  0  0  0  0  0
   -1.5406    1.8312   -0.0332 O   0  0  0  0  0  0  0  0  0  0  0  0
   -3.5650    2.7109   -0.3722 O   0  0  0  0  0  1  0  0  0  0  0  0
    2.9552   -1.4433    0.6043 C   0  0  0  0  0  0  0  0  0  0  0  0
    2.4060   -2.7052    1.1897 C   0  0  0  0  0  0  0  0  0  0  0  0
    4.1885   -1.4183   -0.0189 C   0  0  0  0  0  0  0  0  0  0  0  0
  1  2  1  0
  2  3  2  0
  3  4  1  0
  4  5  1  0
  4  6  2  0
  6  7  1  0
  7  8  1  0
  8  9  2  0
  8 10  1  0
 10 11  1  0
 11 12  2  0
 12 13  1  0
 13 14  2  0
 14 15  1  0
 15 16  2  0
 16 17  1  0
 17 18  2  0
 17 19  1  0
  6 20  1  0
 20 21  1  0
 20 22  2  0
 22  2  1  0
 16 11  1  0
M  CHG  2  17   1  19  -1
M  END
>  <zinc_id>  (1) 
ZINC000000184134

>  <smiles>  (1) 
Cc1cc(C)c(NC(=O)Cc2ccccc2[N+](=O)[O-])c(C)c1

$$$$
