
     RDKit          3D

 20 22  0  0  0  0  0  0  0  0999 V2000
    4.6012    0.2964    2.1388 C   0  0  0  0  0  0  0  0  0  0  0  0
    4.4702   -0.7748    1.3760 C   0  0  0  0  0  0  0  0  0  0  0  0
    3.9221   -0.6678    0.0117 C   0  0  0  0  0  0  0  0  0  0  0  0
    3.6121    0.7238   -0.2691 N   0  0  0  0  0  4  0  0  0  0  0  0
    4.8525    1.5105   -0.3693 C   0  0  0  0  0  0  0  0  0  0  0  0
    2.8909    0.7432   -1.5057 C   0  0  0  0  0  0  0  0  0  0  0  0
    1.5089    1.2714   -1.3454 C   0  0  0  0  0  0  0  0  0  0  0  0
    0.8399    0.6752   -0.2159 N   0  0  0  0  0  0  0  0  0  0  0  0
   -0.5309    0.2715   -0.2806 C   0  0  0  0  0  0  0  0  0  0  0  0
   -1.1290   -0.3842   -1.2777 N   0  0  0  0  0  0  0  0  0  0  0  0
   -2.4249   -0.5580   -0.9222 C   0  0  0  0  0  0  0  0  0  0  0  0
   -3.5105   -1.1507   -1.5237 C   0  0  0  0  0  0  0  0  0  0  0  0
   -4.7428   -1.1823   -0.9132 C   0  0  0  0  0  0  0  0  0  0  0  0
   -4.9062   -0.6113    0.3205 C   0  0  0  0  0  0  0  0  0  0  0  0
   -6.1036   -0.5939    1.0071 O   0  0  0  0  0  0  0  0  0  0  0  0
   -3.8364   -0.0072    0.9520 C   0  0  0  0  0  0  0  0  0  0  0  0
   -2.5913    0.0174    0.3260 C   0  0  0  0  0  0  0  0  0  0  0  0
   -1.4237    0.4946    0.6492 O   0  0  0  0  0  0  0  0  0  0  0  0
    1.6113    0.4859    1.0022 C   0  0  0  0  0  0  0  0  0  0  0  0
    2.8903    1.2725    0.8393 C   0  0  0  0  0  0  0  0  0  0  0  0
  1  2  2  0
  2  3  1  0
  3  4  1  0
  4  5  1  0
  4  6  1  0
  6  7  1  0
  7  8  1  0
  8  9  1  0
  9 10  2  0
 10 11  1  0
 11 12  2  0
 12 13  1  0
 13 14  2  0
 14 15  1  0
 14 16  1  0
 16 17  2  0
 17 18  1  0
  8 19  1  0
 19 20  1  0
 20  4  1  0
 18  9  1  0
 17 11  1  0
M  CHG  1   4   1
M  END
>  <zinc_id>  (1) 
ZINC000000019140

>  <smiles>  (1) 
C=CC[N+]1(C)CCN(c2nc3ccc(O)cc3o2)CC1

$$$$
