
     RDKit          3D

 22 24  0  0  0  0  0  0  0  0999 V2000
    1.5024   -3.7413    0.5107 C   0  0  0  0  0  0  0  0  0  0  0  0
    1.3421   -2.8560    1.7510 C   0  0  0  0  0  0  0  0  0  0  0  0
    1.3291   -1.4887    1.3599 O   0  0  0  0  0  0  0  0  0  0  0  0
    0.3624   -1.0060    0.4911 C   0  0  0  0  0  0  0  0  0  0  0  0
   -0.6127   -1.8355   -0.0180 C   0  0  0  0  0  0  0  0  0  0  0  0
   -1.5925   -1.3582   -0.8952 C   0  0  0  0  0  0  0  0  0  0  0  0
   -2.5854   -2.1758   -1.4212 O   0  0  0  0  0  0  0  0  0  0  0  0
   -2.5681   -3.5353   -1.0289 C   0  0  0  0  0  0  0  0  0  0  0  0
   -2.7108   -3.7079    0.4581 C   0  0  0  0  0  0  0  0  0  0  0  0
   -1.5457   -0.0210   -1.2325 C   0  0  0  0  0  0  0  0  0  0  0  0
   -2.5034    0.4771   -2.0987 C   0  0  0  0  0  0  0  0  0  0  0  0
   -2.4787    1.8126   -2.4523 C   0  0  0  0  0  0  0  0  0  0  0  0
   -1.5027    2.6461   -1.9436 C   0  0  0  0  0  0  0  0  0  0  0  0
   -0.5696    2.1117   -1.0861 C   0  0  0  0  0  0  0  0  0  0  0  0
   -0.5644    0.7862   -0.7125 C   0  0  0  0  0  0  0  0  0  0  0  0
    0.4122    0.3291    0.1566 C   0  0  0  0  0  0  0  0  0  0  0  0
    1.4240    1.2474    0.6689 C   0  0  0  0  0  0  0  0  0  0  0  0
    1.3979    2.0282    1.8066 C   0  0  0  0  0  0  0  0  0  0  0  0
    2.5819    2.7314    1.8747 C   0  0  0  0  0  0  0  0  0  0  0  0
    2.9874    3.6685    2.8942 N   0  0  0  0  0  0  0  0  0  0  0  0
    3.2709    2.3739    0.8176 O   0  0  0  0  0  0  0  0  0  0  0  0
    2.6237    1.5136    0.0995 N   0  0  0  0  0  0  0  0  0  0  0  0
  1  2  1  0
  2  3  1  0
  3  4  1  0
  4  5  2  0
  5  6  1  0
  6  7  1  0
  7  8  1  0
  8  9  1  0
  6 10  2  0
 10 11  1  0
 11 12  2  0
 12 13  1  0
 13 14  2  0
 14 15  1  0
 15 16  2  0
 16 17  1  0
 17 18  1  0
 18 19  2  0
 19 20  1  0
 19 21  1  0
 21 22  1  0
 16  4  1  0
 22 17  2  0
 15 10  1  0
M  END
>  <zinc_id>  (1) 
ZINC000003704661

>  <smiles>  (1) 
CCOc1cc(OCC)c2ccccc2c1-c1cc(N)on1

$$$$
