
     RDKit          3D

 19 20  0  0  0  0  0  0  0  0999 V2000
   -3.4170    3.3676    0.9461 C   0  0  0  0  0  0  0  0  0  0  0  0
   -2.7517    2.0612    0.5845 C   0  0  0  0  0  0  0  0  0  0  0  0
   -1.0903    1.7077    0.4661 S   0  0  0  0  0  0  0  0  0  0  0  0
   -1.1908    0.0650    0.0245 C   0  0  0  0  0  0  0  0  0  0  0  0
   -0.1234   -0.8762   -0.2442 N   0  0  0  0  0  0  0  0  0  0  0  0
    1.2247   -0.5086   -0.1639 C   0  0  0  0  0  0  0  0  0  0  0  0
    1.5094    0.6725    0.1507 O   0  0  0  0  0  0  0  0  0  0  0  0
    2.3251   -1.4625   -0.4364 C   0  0  0  0  0  0  0  0  0  0  0  0
    3.6477   -0.7576   -0.2648 C   0  0  0  0  0  0  0  0  0  0  0  0
    4.3927   -0.6496    0.8733 C   0  0  0  0  0  0  0  0  0  0  0  0
    5.5443    0.0257    0.8011 C   0  0  0  0  0  0  0  0  0  0  0  0
    5.8906    0.5572   -0.4041 C   0  0  0  0  0  0  0  0  0  0  0  0
    4.5899    0.0943   -1.4027 S   0  0  0  0  0  0  0  0  0  0  0  0
   -2.5416   -0.1629   -0.0182 C   0  0  0  0  0  0  0  0  0  0  0  0
   -3.0620   -1.5152   -0.3756 C   0  0  0  0  0  0  0  0  0  0  0  0
   -4.4430   -1.8072   -0.4351 N   0  0  0  0  0  0  0  0  0  0  0  0
   -2.2920   -2.4684   -0.6433 O   0  0  0  0  0  0  0  0  0  0  0  0
   -3.3449    0.8673    0.2709 C   0  0  0  0  0  0  0  0  0  0  0  0
   -4.8677    0.7897    0.2712 C   0  0  0  0  0  0  0  0  0  0  0  0
  1  2  1  0
  2  3  1  0
  3  4  1  0
  4  5  1  0
  5  6  1  0
  6  7  2  0
  6  8  1  0
  8  9  1  0
  9 10  2  0
 10 11  1  0
 11 12  2  0
 12 13  1  0
  4 14  2  0
 14 15  1  0
 15 16  1  0
 15 17  2  0
 14 18  1  0
 18 19  1  0
 18  2  2  0
 13  9  1  0
M  END
>  <zinc_id>  (1) 
ZINC000001055040

>  <smiles>  (1) 
Cc1sc(NC(=O)Cc2cccs2)c(C(N)=O)c1C

$$$$
