
     RDKit          3D

 20 22  0  0  0  0  0  0  0  0999 V2000
    6.2736    0.9492   -0.6981 C   0  0  0  0  0  0  0  0  0  0  0  0
    5.1212    0.1416   -0.7705 O   0  0  0  0  0  0  0  0  0  0  0  0
    3.8719    0.5115   -0.3556 C   0  0  0  0  0  0  0  0  0  0  0  0
    3.5604    1.7330    0.1951 C   0  0  0  0  0  0  0  0  0  0  0  0
    2.2673    2.0052    0.5807 C   0  0  0  0  0  0  0  0  0  0  0  0
    1.2478    1.0876    0.4363 C   0  0  0  0  0  0  0  0  0  0  0  0
   -0.0509    1.0748    0.7101 N   0  0  0  0  0  0  0  0  0  0  0  0
   -0.6171   -0.1053    0.3643 C   0  0  0  0  0  0  0  0  0  0  0  0
   -1.9266   -0.5826    0.4566 C   0  0  0  0  0  0  0  0  0  0  0  0
   -2.8457    0.3096    1.0347 N   0  0  0  0  0  0  0  0  0  0  0  0
   -4.2212    0.0224    1.1905 C   0  0  0  0  0  0  0  0  0  0  0  0
   -4.9554    0.1041   -0.1015 C   0  0  0  0  0  0  0  0  0  0  0  0
   -4.4149   -0.8701   -1.0957 C   0  0  0  0  0  0  0  0  0  0  0  0
   -4.7732    1.5127   -0.6565 C   0  0  0  0  0  0  0  0  0  0  0  0
   -2.1736   -1.8134    0.0221 N   0  0  0  0  0  0  0  0  0  0  0  0
   -1.2043   -2.5693   -0.4856 C   0  0  0  0  0  0  0  0  0  0  0  0
    0.0709   -2.1100   -0.5775 N   0  0  0  0  0  0  0  0  0  0  0  0
    0.3817   -0.8655   -0.1513 C   0  0  0  0  0  0  0  0  0  0  0  0
    1.5444   -0.1383   -0.1130 C   0  0  0  0  0  0  0  0  0  0  0  0
    2.8438   -0.3970   -0.4946 C   0  0  0  0  0  0  0  0  0  0  0  0
  1  2  1  0
  2  3  1  0
  3  4  2  0
  4  5  1  0
  5  6  2  0
  6  7  1  0
  7  8  1  0
  8  9  2  0
  9 10  1  0
 10 11  1  0
 11 12  1  0
 12 13  1  0
 12 14  1  0
  9 15  1  0
 15 16  2  0
 16 17  1  0
 17 18  2  0
 18 19  1  0
 19 20  2  0
 20  3  1  0
 19  6  1  0
 18  8  1  0
M  END
>  <zinc_id>  (1) 
ZINC000000542835

>  <smiles>  (1) 
COc1ccc2[nH]c3c(NCC(C)C)ncnc3c2c1

$$$$
