
     RDKit          3D

 18 19  0  0  0  0  0  0  0  0999 V2000
    4.2456    2.3783   -0.0549 C   0  0  0  0  0  0  0  0  0  0  0  0
    4.7249    0.6353    0.1122 S   0  0  0  0  0  0  0  0  0  0  0  0
    3.2654   -0.3859   -0.0226 C   0  0  0  0  0  0  0  0  0  0  0  0
    3.4112   -1.7510    0.0776 C   0  0  0  0  0  0  0  0  0  0  0  0
    2.2837   -2.5395   -0.0266 C   0  0  0  0  0  0  0  0  0  0  0  0
    1.0284   -1.9992   -0.2263 C   0  0  0  0  0  0  0  0  0  0  0  0
    0.8682   -0.6361   -0.3283 C   0  0  0  0  0  0  0  0  0  0  0  0
   -0.4225   -0.0361   -0.5363 N   0  0  0  0  0  0  0  0  0  0  0  0
   -0.6812    0.8772   -1.4965 C   0  0  0  0  0  0  0  0  0  0  0  0
    0.3032    1.4045   -2.4786 C   0  0  0  0  0  0  0  0  0  0  0  0
   -2.0342    1.2165   -1.3792 C   0  0  0  0  0  0  0  0  0  0  0  0
   -2.5712    0.4922   -0.3377 C   0  0  0  0  0  0  0  0  0  0  0  0
   -3.9630    0.5239    0.1506 C   0  0  0  0  0  0  0  0  0  0  0  0
   -4.9360    1.3580   -0.4484 N   0  0  0  0  0  0  0  0  0  0  0  0
   -4.3332   -0.1884    1.1152 O   0  0  0  0  0  0  0  0  0  0  0  0
   -1.5389   -0.2723    0.1584 C   0  0  0  0  0  0  0  0  0  0  0  0
   -1.6562   -1.2169    1.2968 C   0  0  0  0  0  0  0  0  0  0  0  0
    2.0057    0.1395   -0.2220 C   0  0  0  0  0  0  0  0  0  0  0  0
  1  2  1  0
  2  3  1  0
  3  4  2  0
  4  5  1  0
  5  6  2  0
  6  7  1  0
  7  8  1  0
  8  9  1  0
  9 10  1  0
  9 11  2  0
 11 12  1  0
 12 13  1  0
 13 14  1  0
 13 15  2  0
 12 16  2  0
 16 17  1  0
  7 18  2  0
 18  3  1  0
 16  8  1  0
M  END
>  <zinc_id>  (1) 
ZINC000002659985

>  <smiles>  (1) 
CSc1cccc(-n2c(C)cc(C(N)=O)c2C)c1

$$$$
