
     RDKit          3D

 19 19  0  0  0  0  0  0  0  0999 V2000
    5.1944   -1.8771   -1.7789 C   0  0  0  0  0  0  0  0  0  0  0  0
    4.6553   -0.5472   -1.3150 C   0  0  0  0  0  0  0  0  0  0  0  0
    5.3523   -0.0726   -0.0442 C   0  0  0  0  0  0  0  0  0  0  0  0
    3.1819   -0.6384   -0.9875 C   0  0  0  0  0  0  0  0  0  0  0  0
    2.6536    0.6617   -0.5337 C   0  0  0  0  0  0  0  0  0  0  0  0
    3.4455    1.6362   -0.4762 O   0  0  0  0  0  0  0  0  0  0  0  0
    1.2911    0.8035   -0.1738 N   0  0  0  0  0  0  0  0  0  0  0  0
    0.7561    2.0598    0.2706 C   0  0  0  0  0  0  0  0  0  0  0  0
    1.7374    3.3536    0.3636 S   0  0  0  0  0  0  0  0  0  0  0  0
   -0.5975    2.1789    0.6227 N   0  0  0  0  0  0  0  0  0  0  0  0
   -1.4942    1.0684    0.5558 C   0  0  0  0  0  0  0  0  0  0  0  0
   -1.1054   -0.1824    0.1477 C   0  0  0  0  0  0  0  0  0  0  0  0
   -1.9528   -1.2604    0.0773 C   0  0  0  0  0  0  0  0  0  0  0  0
   -3.2676   -1.0773    0.4363 C   0  0  0  0  0  0  0  0  0  0  0  0
   -4.1427   -2.1829    0.3655 N   0  0  0  0  0  4  0  0  0  0  0  0
   -3.7323   -3.2874   -0.0109 O   0  0  0  0  0  0  0  0  0  0  0  0
   -5.4554   -2.0435    0.7130 O   0  0  0  0  0  1  0  0  0  0  0  0
   -3.7028    0.1723    0.8552 C   0  0  0  0  0  0  0  0  0  0  0  0
   -2.8169    1.2347    0.9125 C   0  0  0  0  0  0  0  0  0  0  0  0
  1  2  1  0
  2  3  1  0
  2  4  1  0
  4  5  1  0
  5  6  2  0
  5  7  1  0
  7  8  1  0
  8  9  2  0
  8 10  1  0
 10 11  1  0
 11 12  2  0
 12 13  1  0
 13 14  2  0
 14 15  1  0
 15 16  2  0
 15 17  1  0
 14 18  1  0
 18 19  2  0
 19 11  1  0
M  CHG  2  15   1  17  -1
M  END
>  <zinc_id>  (1) 
ZINC000004091645

>  <smiles>  (1) 
CC(C)CC(=O)NC(=S)Nc1ccc([N+](=O)[O-])cc1

$$$$
