
     RDKit          3D

 19 20  0  0  0  0  0  0  0  0999 V2000
   -2.7643    3.2966   -0.6061 C   0  0  0  0  0  0  0  0  0  0  0  0
   -2.6551    2.1026   -0.7353 C   0  0  0  0  0  0  0  0  0  0  0  0
   -2.5105    0.5137   -0.9459 C   0  0  2  0  0  0  0  0  0  0  0  0
   -3.6938    0.2057   -0.0413 O   0  0  0  0  0  0  0  0  0  0  0  0
   -3.9886   -1.1301    0.0165 C   0  0  0  0  0  0  0  0  0  0  0  0
   -5.0583   -1.6592    0.8161 N   0  0  0  0  0  0  0  0  0  0  0  0
   -3.3318   -1.9516   -0.6312 O   0  0  0  0  0  0  0  0  0  0  0  0
   -1.3971    0.3824    0.2537 C   0  0  0  0  0  0  0  0  0  0  0  0
   -1.0084   -1.0524    0.3283 C   0  0  0  0  0  0  0  0  0  0  0  0
    0.4020   -1.2059    0.7799 C   0  0  0  0  0  0  0  0  0  0  0  0
    1.3249   -0.6049   -0.2315 C   0  0  0  0  0  0  0  0  0  0  0  0
    2.7028   -0.4026    0.2898 C   0  0  0  0  0  0  0  0  0  0  0  0
    3.2023   -0.9672    1.4225 C   0  0  0  0  0  0  0  0  0  0  0  0
    4.5135   -0.7178    1.8344 C   0  0  0  0  0  0  0  0  0  0  0  0
    5.3424    0.1029    1.1140 C   0  0  0  0  0  0  0  0  0  0  0  0
    4.8452    0.6795   -0.0352 C   0  0  0  0  0  0  0  0  0  0  0  0
    3.5314    0.4248   -0.4408 C   0  0  0  0  0  0  0  0  0  0  0  0
    0.8764    0.6898   -0.7988 C   0  0  0  0  0  0  0  0  0  0  0  0
   -0.3330    1.2939   -0.2415 C   0  0  0  0  0  0  0  0  0  0  0  0
  1  2  3  0
  3  2  1  1
  3  4  1  0
  4  5  1  0
  5  6  1  0
  5  7  2  0
  3  8  1  0
  8  9  1  0
  9 10  1  0
 10 11  1  0
 11 12  1  0
 12 13  2  0
 13 14  1  0
 14 15  2  0
 15 16  1  0
 16 17  2  0
 11 18  1  0
 18 19  1  0
 19  8  1  0
 17 12  1  0
M  END
>  <zinc_id>  (1) 
ZINC000003598522

>  <smiles>  (1) 
C#C[C@H](OC(N)=O)C1CCC(c2ccccc2)CC1

$$$$
