
     RDKit          3D

 21 23  0  0  0  0  0  0  0  0999 V2000
    4.3704    2.1886   -0.1897 C   0  0  0  0  0  0  0  0  0  0  0  0
    3.5396    0.9523   -0.0694 C   0  0  0  0  0  0  0  0  0  0  0  0
    3.9461   -0.0278    0.8341 C   0  0  0  0  0  0  0  0  0  0  0  0
    3.2576   -1.1975    1.0322 C   0  0  0  0  0  0  0  0  0  0  0  0
    2.1013   -1.3934    0.2841 C   0  0  0  0  0  0  0  0  0  0  0  0
    1.4377   -2.7123    0.5282 C   0  0  0  0  0  0  0  0  0  0  0  0
    1.6799   -0.4554   -0.6021 C   0  0  0  0  0  0  0  0  0  0  0  0
    0.4023   -0.6693   -1.3211 C   0  0  0  0  0  0  0  0  0  0  0  0
   -0.7642   -0.2180   -0.6492 N   0  0  0  0  0  0  0  0  0  0  0  0
   -1.2512    1.0626   -0.7308 C   0  0  0  0  0  0  0  0  0  0  0  0
   -0.4954    2.1592   -1.6181 C   0  0  2  0  0  0  0  0  0  0  0  0
   -0.4907    3.3004   -0.4343 C   0  0  0  0  0  0  0  0  0  0  0  0
   -1.7495    2.7407   -2.2792 O   0  0  0  0  0  0  0  0  0  0  0  0
   -2.3246    1.1917   -0.0317 N   0  0  0  0  0  0  0  0  0  0  0  0
   -2.6213    0.0192    0.5551 C   0  0  0  0  0  0  0  0  0  0  0  0
   -3.6282   -0.4034    1.3806 C   0  0  0  0  0  0  0  0  0  0  0  0
   -3.7184   -1.6881    1.8543 C   0  0  0  0  0  0  0  0  0  0  0  0
   -2.7403   -2.5804    1.4680 C   0  0  0  0  0  0  0  0  0  0  0  0
   -1.7436   -2.1396    0.6443 C   0  0  0  0  0  0  0  0  0  0  0  0
   -1.6034   -0.8682    0.1410 C   0  0  0  0  0  0  0  0  0  0  0  0
    2.3960    0.7391   -0.7964 C   0  0  0  0  0  0  0  0  0  0  0  0
  1  2  1  0
  2  3  2  0
  3  4  1  0
  4  5  2  0
  5  6  1  0
  5  7  1  0
  7  8  1  0
  8  9  1  0
  9 10  1  0
 10 11  1  0
 11 12  1  1
 11 13  1  0
 10 14  2  0
 14 15  1  0
 15 16  2  0
 16 17  1  0
 17 18  2  0
 18 19  1  0
 19 20  2  0
  7 21  2  0
 21  2  1  0
 20  9  1  0
 20 15  1  0
M  END
>  <zinc_id>  (1) 
ZINC000000572494

>  <smiles>  (1) 
Cc1ccc(C)c(Cn2c([C@H](C)O)nc3ccccc32)c1

$$$$
