
     RDKit          3D

 21 22  0  0  0  0  0  0  0  0999 V2000
    3.4236   -4.4516    2.2588 C   0  0  0  0  0  0  0  0  0  0  0  0
    2.6719   -3.2860    1.7065 C   0  0  0  0  0  0  0  0  0  0  0  0
    1.3435   -3.3591    1.3693 C   0  0  0  0  0  0  0  0  0  0  0  0
    0.7076   -2.2307    0.8594 C   0  0  0  0  0  0  0  0  0  0  0  0
   -0.7187   -2.3487    0.5093 C   0  0  0  0  0  0  0  0  0  0  0  0
    1.3520   -1.0376    0.6762 C   0  0  0  0  0  0  0  0  0  0  0  0
    0.7329    0.1516    0.1527 C   0  0  0  0  0  0  0  0  0  0  0  0
    1.4503    1.2046    0.0312 O   0  0  0  0  0  0  0  0  0  0  0  0
   -0.6024    0.3206   -0.2588 N   0  0  0  0  0  0  0  0  0  0  0  0
   -1.1045    1.5752   -0.7704 C   0  0  0  0  0  0  0  0  0  0  0  0
   -0.1955    2.6058   -0.8334 C   0  0  0  0  0  0  0  0  0  0  0  0
   -0.5205    3.8571   -1.2960 C   0  0  0  0  0  0  0  0  0  0  0  0
   -1.8386    4.0240   -1.7023 C   0  0  0  0  0  0  0  0  0  0  0  0
   -2.7519    3.0095   -1.6453 C   0  0  0  0  0  0  0  0  0  0  0  0
   -2.3818    1.7664   -1.1729 C   0  0  0  0  0  0  0  0  0  0  0  0
   -3.3526    0.6727   -1.1077 C   0  0  0  0  0  0  0  0  0  0  0  0
   -4.7061    0.8046   -1.5131 N   0  0  0  0  0  0  0  0  0  0  0  0
   -2.9798   -0.4337   -0.6755 O   0  0  0  0  0  0  0  0  0  0  0  0
    2.6813   -1.0048    1.0257 C   0  0  0  0  0  0  0  0  0  0  0  0
    3.4421    0.2547    0.8541 C   0  0  0  0  0  0  0  0  0  0  0  0
    3.3471   -2.0948    1.5322 C   0  0  0  0  0  0  0  0  0  0  0  0
  1  2  1  0
  2  3  2  0
  3  4  1  0
  4  5  1  0
  4  6  2  0
  6  7  1  0
  7  8  2  0
  7  9  1  0
  9 10  1  0
 10 11  2  0
 11 12  1  0
 12 13  2  0
 13 14  1  0
 14 15  2  0
 15 16  1  0
 16 17  1  0
 16 18  2  0
  6 19  1  0
 19 20  1  0
 19 21  2  0
 21  2  1  0
 15 10  1  0
M  END
>  <zinc_id>  (1) 
ZINC000000116297

>  <smiles>  (1) 
Cc1cc(C)c(C(=O)Nc2ccccc2C(N)=O)c(C)c1

$$$$
