
     RDKit          3D

 22 25  0  0  0  0  0  0  0  0999 V2000
    0.1104   -3.9846   -1.3217 C   0  0  0  0  0  0  0  0  0  0  0  0
   -0.4031   -2.6504   -0.9983 C   0  0  0  0  0  0  0  0  0  0  0  0
    0.3397   -1.5917   -0.6852 N   0  0  0  0  0  0  0  0  0  0  0  0
   -0.1229   -0.3692   -0.3885 C   0  0  0  0  0  0  0  0  0  0  0  0
    0.8139    0.6355   -0.0799 N   0  0  0  0  0  0  0  0  0  0  0  0
    2.2011    0.4759   -0.0533 C   0  0  0  0  0  0  0  0  0  0  0  0
    2.9997    1.5531    0.2675 C   0  0  0  0  0  0  0  0  0  0  0  0
    4.3762    1.4640    0.3120 C   0  0  0  0  0  0  0  0  0  0  0  0
    5.0074    0.2731    0.0318 C   0  0  0  0  0  0  0  0  0  0  0  0
    4.2259   -0.8133   -0.2906 C   0  0  0  0  0  0  0  0  0  0  0  0
    4.8766   -2.0215   -0.5744 O   0  0  0  0  0  0  0  0  0  0  0  0
    2.8484   -0.7093   -0.3312 C   0  0  0  0  0  0  0  0  0  0  0  0
   -1.5081   -0.1429   -0.3975 C   0  0  0  0  0  0  0  0  0  0  0  0
   -2.1633    0.9952   -0.1324 C   0  0  0  0  0  0  0  0  0  0  0  0
   -3.5341    0.9725   -0.2057 C   0  0  0  0  0  0  0  0  0  0  0  0
   -3.8623   -0.6444   -0.6444 S   0  0  0  0  0  0  0  0  0  0  0  0
   -2.2640   -1.2390   -0.7211 C   0  0  0  0  0  0  0  0  0  0  0  0
   -1.7328   -2.4637   -1.0150 N   0  0  0  0  0  0  0  0  0  0  0  0
   -4.3507    2.2111    0.0777 C   0  0  0  0  0  0  0  0  0  0  0  0
   -3.8492    2.9170    1.3049 C   0  0  0  0  0  0  0  0  0  0  0  0
   -2.3655    2.7608    1.5154 C   0  0  0  0  0  0  0  0  0  0  0  0
   -1.6433    2.3720    0.2530 C   0  0  0  0  0  0  0  0  0  0  0  0
  1  2  1  0
  2  3  2  0
  3  4  1  0
  4  5  1  0
  5  6  1  0
  6  7  2  0
  7  8  1  0
  8  9  2  0
  9 10  1  0
 10 11  1  0
 10 12  2  0
  4 13  2  0
 13 14  1  0
 14 15  2  0
 15 16  1  0
 16 17  1  0
 17 18  2  0
 15 19  1  0
 19 20  1  0
 20 21  1  0
 21 22  1  0
 18  2  1  0
 12  6  1  0
 17 13  1  0
 22 14  1  0
M  END
>  <zinc_id>  (1) 
ZINC000000554965

>  <smiles>  (1) 
Cc1nc(Nc2cccc(O)c2)c2c3c(sc2n1)CCCC3

$$$$
