
     RDKit          3D

 21 22  0  0  0  0  0  0  0  0999 V2000
    6.5180   -0.0394   -0.1874 C   0  0  0  0  0  0  0  0  0  0  0  0
    5.0297   -0.0304   -0.2075 C   0  0  0  0  0  0  0  0  0  0  0  0
    4.3239   -0.8293    0.6684 C   0  0  0  0  0  0  0  0  0  0  0  0
    2.9375   -0.8583    0.6908 C   0  0  0  0  0  0  0  0  0  0  0  0
    2.2110   -0.0726   -0.1804 C   0  0  0  0  0  0  0  0  0  0  0  0
    0.7495   -0.0616   -0.2016 C   0  0  0  0  0  0  0  0  0  0  0  0
    0.1014    0.0471   -1.2776 O   0  0  0  0  0  0  0  0  0  0  0  0
    0.0131   -0.1732    0.9918 N   0  0  0  0  0  0  0  0  0  0  0  0
   -1.3940   -0.1715    1.0647 C   0  0  0  0  0  0  0  0  0  0  0  0
   -2.1210   -0.0541   -0.0953 C   0  0  0  0  0  0  0  0  0  0  0  0
   -3.5011   -0.0438   -0.1130 C   0  0  0  0  0  0  0  0  0  0  0  0
   -4.2402    0.0803   -1.3377 N   0  0  0  0  0  4  0  0  0  0  0  0
   -5.4861    0.0833   -1.2865 O   0  0  0  0  0  0  0  0  0  0  0  0
   -3.6090    0.1936   -2.5412 O   0  0  0  0  0  1  0  0  0  0  0  0
   -4.1346   -0.1583    1.1044 C   0  0  0  0  0  0  0  0  0  0  0  0
   -3.4269   -0.2775    2.2842 C   0  0  0  0  0  0  0  0  0  0  0  0
   -2.0347   -0.2851    2.2723 C   0  0  0  0  0  0  0  0  0  0  0  0
   -1.2844   -0.4155    3.5649 C   0  0  0  0  0  0  0  0  0  0  0  0
    2.9123    0.7288   -1.0590 C   0  0  0  0  0  0  0  0  0  0  0  0
    2.1385    1.5845   -2.0082 C   0  0  0  0  0  0  0  0  0  0  0  0
    4.2972    0.7529   -1.0762 C   0  0  0  0  0  0  0  0  0  0  0  0
  1  2  1  0
  2  3  2  0
  3  4  1  0
  4  5  2  0
  5  6  1  0
  6  7  2  0
  6  8  1  0
  8  9  1  0
  9 10  2  0
 10 11  1  0
 11 12  1  0
 12 13  2  0
 12 14  1  0
 11 15  2  0
 15 16  1  0
 16 17  2  0
 17 18  1  0
  5 19  1  0
 19 20  1  0
 19 21  2  0
 21  2  1  0
 17  9  1  0
M  CHG  2  12   1  14  -1
M  END
>  <zinc_id>  (1) 
ZINC000000588445

>  <smiles>  (1) 
Cc1ccc(C(=O)Nc2cc([N+](=O)[O-])ccc2C)c(C)c1

$$$$
