
     RDKit          3D

 20 22  0  0  0  0  0  0  0  0999 V2000
   -4.6896    1.9797    0.8415 C   0  0  0  0  0  0  0  0  0  0  0  0
   -4.2670    0.9559   -0.2882 C   0  0  0  0  0  0  0  0  0  0  0  0
   -3.7583    2.0204   -1.4235 C   0  0  0  0  0  0  0  0  0  0  0  0
   -2.9291    0.3348    0.1073 C   0  0  0  0  0  0  0  0  0  0  0  0
   -1.7312    1.0039    0.1613 N   0  0  0  0  0  0  0  0  0  0  0  0
   -0.7231    0.1446    0.3242 N   0  0  0  0  0  0  0  0  0  0  0  0
    0.6936    0.3026    0.3612 C   0  0  0  0  0  0  0  0  0  0  0  0
    1.4557    1.0832    1.1297 C   0  0  0  0  0  0  0  0  0  0  0  0
    2.8547    1.1455    0.9334 C   0  0  0  0  0  0  0  0  0  0  0  0
    3.4930    0.4494   -0.0055 C   0  0  0  0  0  0  0  0  0  0  0  0
    4.8878    0.5252   -0.2720 N   0  0  0  0  0  4  0  0  0  0  0  0
    5.6243    1.2435    0.3540 O   0  0  0  0  0  0  0  0  0  0  0  0
    5.4438   -0.2204   -1.3070 O   0  0  0  0  0  1  0  0  0  0  0  0
    2.7108   -0.3785   -0.8184 C   0  0  0  0  0  0  0  0  0  0  0  0
    1.3741   -0.4441   -0.6374 C   0  0  0  0  0  0  0  0  0  0  0  0
   -1.3093   -1.1071    0.3768 C   0  0  0  0  0  0  0  0  0  0  0  0
   -2.6572   -0.9693    0.2376 C   0  0  0  0  0  0  0  0  0  0  0  0
   -3.3377   -2.3177    0.3069 C   0  0  0  0  0  0  0  0  0  0  0  0
   -2.1900   -3.2778    0.6078 C   0  0  0  0  0  0  0  0  0  0  0  0
   -0.9451   -2.4738    0.5178 N   0  0  0  0  0  0  0  0  0  0  0  0
  1  2  1  0
  2  3  1  0
  2  4  1  0
  4  5  2  0
  5  6  1  0
  6  7  1  0
  7  8  2  0
  8  9  1  0
  9 10  2  0
 10 11  1  0
 11 12  2  0
 11 13  1  0
 10 14  1  0
 14 15  2  0
  6 16  1  0
 16 17  2  0
 17 18  1  0
 18 19  1  0
 19 20  1  0
 17  4  1  0
 15  7  1  0
 20 16  1  0
M  CHG  2  11   1  13  -1
M  END
>  <zinc_id>  (1) 
ZINC000003701036

>  <smiles>  (1) 
CC(C)c1nn(-c2ccc([N+](=O)[O-])cc2)c2c1CCN2

$$$$
