
     RDKit          3D

 19 20  0  0  0  0  0  0  0  0999 V2000
   -0.0960   -0.0835   -2.5342 C   0  0  0  0  0  0  0  0  0  0  0  0
   -0.7105   -1.2811   -1.6436 C   0  0  1  0  0  0  0  0  0  0  0  0
    0.4851   -1.5577   -0.6614 C   0  0  0  0  0  0  0  0  0  0  0  0
    0.8852   -2.6734   -0.4208 O   0  0  0  0  0  0  0  0  0  0  0  0
    1.1088   -0.5327   -0.0425 C   0  0  0  0  0  0  0  0  0  0  0  0
    1.8140    0.4328    0.4074 C   0  0  0  0  0  0  0  0  0  0  0  0
    2.1832    1.7696   -0.0964 C   0  0  0  0  0  0  0  0  0  0  0  0
    3.6126    1.7885   -0.5312 C   0  0  0  0  0  0  0  0  0  0  0  0
    4.3866    0.5433   -0.2608 C   0  0  0  0  0  0  0  0  0  0  0  0
    4.1703   -0.0265    1.1187 C   0  0  0  0  0  0  0  0  0  0  0  0
    2.7368   -0.0093    1.5688 C   0  0  0  0  0  0  0  0  0  0  0  0
   -1.6138   -0.4020   -0.7300 C   0  0  0  0  0  0  0  0  0  0  0  0
   -1.9417    0.8915   -1.0748 C   0  0  0  0  0  0  0  0  0  0  0  0
   -2.7770    1.6510   -0.2604 C   0  0  0  0  0  0  0  0  0  0  0  0
   -3.3054    1.1623    0.9042 C   0  0  0  0  0  0  0  0  0  0  0  0
   -4.1642    1.9195    1.7656 N   0  0  0  0  0  0  0  0  0  0  0  0
   -2.9731   -0.1501    1.2550 C   0  0  0  0  0  0  0  0  0  0  0  0
   -2.1317   -0.9080    0.4294 C   0  0  0  0  0  0  0  0  0  0  0  0
   -1.6690   -2.5342    0.8070 Cl  0  0  0  0  0  0  0  0  0  0  0  0
  2  1  1  1
  2  3  1  0
  3  4  2  0
  3  5  1  0
  5  6  1  0
  6  7  1  0
  7  8  1  0
  8  9  1  0
  9 10  1  0
 10 11  1  0
  2 12  1  0
 12 13  2  0
 13 14  1  0
 14 15  2  0
 15 16  1  0
 15 17  1  0
 17 18  2  0
 18 19  1  0
 11  6  1  0
 18 12  1  0
M  END
>  <zinc_id>  (1) 
ZINC000000011787

>  <smiles>  (1) 
C[C@H](C(=O)CC1CCCCC1)c1ccc(N)cc1Cl

$$$$
