
     RDKit          3D

 20 22  0  0  0  0  0  0  0  0999 V2000
   -2.5696    3.2371   -1.5687 C   0  0  0  0  0  0  0  0  0  0  0  0
   -2.0953    2.9684   -0.1639 C   0  0  0  0  0  0  0  0  0  0  0  0
   -1.5136    1.6201   -0.0415 C   0  0  0  0  0  0  0  0  0  0  0  0
   -2.3611    0.5366    0.0135 C   0  0  0  0  0  0  0  0  0  0  0  0
   -3.7607    0.6774   -0.0411 O   0  0  0  0  0  0  0  0  0  0  0  0
   -1.8028   -0.6866    0.1232 N   0  0  0  0  0  4  0  0  0  0  0  0
   -0.4460   -0.8429    0.1771 C   0  0  0  0  0  0  0  0  0  0  0  0
    0.3774    0.2084    0.1236 N   0  0  0  0  0  0  0  0  0  0  0  0
    1.7922   -0.0165    0.1789 C   0  0  0  0  0  0  0  0  0  0  0  0
    2.4291   -0.8407   -0.7212 C   0  0  0  0  0  0  0  0  0  0  0  0
    3.7862   -1.0424   -0.6616 C   0  0  0  0  0  0  0  0  0  0  0  0
    4.5383   -0.4189    0.3071 C   0  0  0  0  0  0  0  0  0  0  0  0
    3.8834    0.4007    1.1976 C   0  0  0  0  0  0  0  0  0  0  0  0
    2.5310    0.6123    1.1511 C   0  0  0  0  0  0  0  0  0  0  0  0
   -0.1329    1.4447    0.0144 C   0  0  0  0  0  0  0  0  0  0  0  0
    0.6639    2.4157   -0.0337 O   0  0  0  0  0  0  0  0  0  0  0  0
    0.1536   -2.1982    0.2966 C   0  0  0  0  0  0  0  0  0  0  0  0
   -0.6939   -3.1246   -0.5662 C   0  0  0  0  0  0  0  0  0  0  0  0
   -2.0653   -3.1426    0.0336 C   0  0  0  0  0  0  0  0  0  0  0  0
   -2.7138   -1.8081    0.1812 C   0  0  0  0  0  0  0  0  0  0  0  0
  1  2  1  0
  2  3  1  0
  3  4  2  0
  4  5  1  0
  4  6  1  0
  6  7  2  0
  7  8  1  0
  8  9  1  0
  9 10  2  0
 10 11  1  0
 11 12  2  0
 12 13  1  0
 13 14  2  0
  8 15  1  0
 15 16  2  0
  7 17  1  0
 17 18  1  0
 18 19  1  0
 19 20  1  0
 15  3  1  0
 20  6  1  0
 14  9  1  0
M  CHG  1   6   1
M  END
>  <zinc_id>  (1) 
ZINC000003958184

>  <smiles>  (1) 
CCc1c(O)[n+]2c(n(-c3ccccc3)c1=O)CCCC2

$$$$
