
     RDKit          3D

 20 22  0  0  0  0  0  0  0  0999 V2000
    5.1855   -0.5571   -1.8422 C   0  0  0  0  0  0  0  0  0  0  0  0
    5.4754   -1.0225   -0.4213 C   0  0  0  0  0  0  0  0  0  0  0  0
    4.3442   -1.7134    0.0388 O   0  0  0  0  0  0  0  0  0  0  0  0
    3.1074   -1.0621    0.1130 C   0  0  0  0  0  0  0  0  0  0  0  0
    2.9575    0.2515   -0.2543 C   0  0  0  0  0  0  0  0  0  0  0  0
    1.7214    0.8526   -0.1649 C   0  0  0  0  0  0  0  0  0  0  0  0
    0.6059    0.1902    0.2831 C   0  0  0  0  0  0  0  0  0  0  0  0
   -0.7065    0.7856    0.3911 C   0  0  0  0  0  0  0  0  0  0  0  0
   -0.8915    2.0308    0.9326 C   0  0  0  0  0  0  0  0  0  0  0  0
   -2.1015    2.6655    1.0710 C   0  0  0  0  0  0  0  0  0  0  0  0
   -2.2212    3.9245    1.6268 O   0  0  0  0  0  0  0  0  0  0  0  0
   -3.2350    2.0242    0.6406 C   0  0  0  0  0  0  0  0  0  0  0  0
   -3.0818    0.7507    0.0823 C   0  0  0  0  0  0  0  0  0  0  0  0
   -4.1466   -0.4321   -0.5850 S   0  0  0  0  0  0  0  0  0  0  0  0
   -2.9670   -1.6036   -0.9705 C   0  0  0  0  0  0  0  0  0  0  0  0
   -3.0834   -2.7630   -1.5103 O   0  0  0  0  0  0  0  0  0  0  0  0
   -1.8843   -1.0431   -0.5829 O   0  0  0  0  0  0  0  0  0  0  0  0
   -1.8767    0.1150   -0.0572 C   0  0  0  0  0  0  0  0  0  0  0  0
    0.7871   -1.1234    0.6435 C   0  0  0  0  0  0  0  0  0  0  0  0
    2.0112   -1.7547    0.5659 C   0  0  0  0  0  0  0  0  0  0  0  0
  1  2  1  0
  2  3  1  0
  3  4  1  0
  4  5  2  0
  5  6  1  0
  6  7  2  0
  7  8  1  0
  8  9  2  0
  9 10  1  0
 10 11  1  0
 10 12  2  0
 12 13  1  0
 13 14  1  0
 14 15  1  0
 15 16  2  0
 15 17  1  0
 17 18  1  0
  7 19  1  0
 19 20  2  0
 20  4  1  0
 18  8  1  0
 18 13  2  0
M  END
>  <zinc_id>  (1) 
ZINC000000539308

>  <smiles>  (1) 
CCOc1ccc(-c2cc(O)cc3sc(=O)oc23)cc1

$$$$
