
     RDKit          3D

 20 21  0  0  0  0  0  0  0  0999 V2000
   -3.8943   -2.1983    1.2879 C   0  0  0  0  0  0  0  0  0  0  0  0
   -2.9019   -1.3089    0.6497 C   0  0  0  0  0  0  0  0  0  0  0  0
   -1.6071   -1.6516    0.4552 N   0  0  0  0  0  0  0  0  0  0  0  0
   -0.9440   -0.6562   -0.1419 C   0  0  0  0  0  0  0  0  0  0  0  0
    0.4469   -0.5696   -0.5454 C   0  0  0  0  0  0  0  0  0  0  0  0
    0.8984    0.4745   -1.1049 O   0  0  0  0  0  0  0  0  0  0  0  0
    1.3653   -1.5889   -0.3587 O   0  0  0  0  0  0  0  0  0  0  0  0
    2.7055   -1.5776   -0.7168 C   0  0  0  0  0  0  0  0  0  0  0  0
    3.4982   -0.5151   -0.0738 C   0  0  0  0  0  0  0  0  0  0  0  0
    4.1291   -0.6268    1.1451 C   0  0  0  0  0  0  0  0  0  0  0  0
    4.8625    0.4353    1.6796 C   0  0  0  0  0  0  0  0  0  0  0  0
    4.9681    1.6185    0.9934 C   0  0  0  0  0  0  0  0  0  0  0  0
    4.3428    1.7487   -0.2292 C   0  0  0  0  0  0  0  0  0  0  0  0
    3.6246    0.6872   -0.7366 C   0  0  0  0  0  0  0  0  0  0  0  0
   -1.8761    0.3515   -0.3248 C   0  0  0  0  0  0  0  0  0  0  0  0
   -1.6199    1.6738   -0.9539 C   0  0  0  0  0  0  0  0  0  0  0  0
   -3.0969   -0.0405    0.1623 C   0  0  0  0  0  0  0  0  0  0  0  0
   -4.3891    0.6882    0.1916 C   0  0  0  0  0  0  0  0  0  0  0  0
   -4.6500    1.1904    1.5964 C   0  0  0  0  0  0  0  0  0  0  0  0
   -5.8621    1.8653    1.5917 O   0  0  0  0  0  0  0  0  0  0  0  0
  1  2  1  0
  2  3  1  0
  3  4  1  0
  4  5  1  0
  5  6  2  0
  5  7  1  0
  7  8  1  0
  8  9  1  0
  9 10  2  0
 10 11  1  0
 11 12  2  0
 12 13  1  0
 13 14  2  0
  4 15  2  0
 15 16  1  0
 15 17  1  0
 17 18  1  0
 18 19  1  0
 19 20  1  0
 17  2  2  0
 14  9  1  0
M  END
>  <zinc_id>  (1) 
ZINC000000399905

>  <smiles>  (1) 
Cc1[nH]c(C(=O)OCc2ccccc2)c(C)c1CCO

$$$$
