
     RDKit          3D

 22 24  0  0  0  0  0  0  0  0999 V2000
    2.4070    2.6707    1.2743 C   0  0  0  0  0  0  0  0  0  0  0  0
    1.4627    2.0089    0.4033 N   0  0  0  0  0  0  0  0  0  0  0  0
    0.3799    2.7453   -0.1665 C   0  0  0  0  0  0  0  0  0  0  0  0
    0.3098    3.9929    0.1420 O   0  0  0  0  0  0  0  0  0  0  0  0
   -0.4822    2.1026   -0.9738 N   0  0  0  0  0  0  0  0  0  0  0  0
   -0.5329    0.7105   -1.4029 C   0  0  2  0  0  0  0  0  0  0  0  0
   -1.6912    0.1506   -0.5280 C   0  0  0  0  0  0  0  0  0  0  0  0
   -2.5777   -0.6300   -1.2212 C   0  0  0  0  0  0  0  0  0  0  0  0
   -3.6825   -1.2083   -0.5582 C   0  0  0  0  0  0  0  0  0  0  0  0
   -3.8557   -0.9789    0.7849 C   0  0  0  0  0  0  0  0  0  0  0  0
   -4.9719   -1.5709    1.4246 O   0  0  0  0  0  0  0  0  0  0  0  0
   -2.9740   -0.2039    1.4688 C   0  0  0  0  0  0  0  0  0  0  0  0
   -1.9058    0.3395    0.7669 C   0  0  0  0  0  0  0  0  0  0  0  0
    0.6720    0.0371   -0.7309 C   0  0  0  0  0  0  0  0  0  0  0  0
    1.5265    0.6185    0.0503 C   0  0  0  0  0  0  0  0  0  0  0  0
    2.6983   -0.0447    0.6927 C   0  0  0  0  0  0  0  0  0  0  0  0
    2.8647   -1.4727    0.3798 C   0  0  0  0  0  0  0  0  0  0  0  0
    3.8227   -1.5858   -0.8171 C   0  0  0  0  0  0  0  0  0  0  0  0
    3.5716   -2.1725    1.5274 C   0  0  0  0  0  0  0  0  0  0  0  0
    1.5806   -2.1761    0.0242 C   0  0  0  0  0  0  0  0  0  0  0  0
    0.8828   -1.3937   -1.0107 C   0  0  0  0  0  0  0  0  0  0  0  0
    0.4951   -1.9392   -2.0713 O   0  0  0  0  0  0  0  0  0  0  0  0
  1  2  1  0
  2  3  1  0
  3  4  2  0
  3  5  1  0
  5  6  1  0
  6  7  1  1
  7  8  2  0
  8  9  1  0
  9 10  2  0
 10 11  1  0
 10 12  1  0
 12 13  2  0
  6 14  1  0
 14 15  2  0
 15 16  1  0
 16 17  1  0
 17 18  1  0
 17 19  1  0
 17 20  1  0
 20 21  1  0
 21 22  2  0
 15  2  1  0
 13  7  1  0
 21 14  1  0
M  END
>  <zinc_id>  (1) 
ZINC000002701585

>  <smiles>  (1) 
CN1C(=O)N[C@H](c2ccc(O)cc2)C2=C1CC(C)(C)CC2=O

$$$$
