
     RDKit          3D

 24 26  0  0  0  0  0  0  0  0999 V2000
    3.3841   -1.8280    2.2444 C   0  0  0  0  0  0  0  0  0  0  0  0
    3.0167   -0.7523    1.4271 O   0  0  0  0  0  0  0  0  0  0  0  0
    1.9447   -0.7446    0.5576 C   0  0  0  0  0  0  0  0  0  0  0  0
    1.2312   -1.7656    0.4756 O   0  0  0  0  0  0  0  0  0  0  0  0
    1.6030    0.4016   -0.2732 C   0  0  0  0  0  0  0  0  0  0  0  0
    2.3240    1.4626   -0.2034 C   0  0  0  0  0  0  0  0  0  0  0  0
    3.4958    1.4731    0.7260 C   0  0  0  0  0  0  0  0  0  0  0  0
    2.0566    2.6715   -0.8840 N   0  0  0  0  0  0  0  0  0  0  0  0
    0.8828    2.6868   -1.6932 C   0  0  0  0  0  0  0  0  0  0  0  0
    0.6147    3.7914   -2.3408 O   0  0  0  0  0  0  0  0  0  0  0  0
    0.0998    1.5821   -1.7644 N   0  0  0  0  0  0  0  0  0  0  0  0
    0.4163    0.2331   -1.2714 C   0  0  2  0  0  0  0  0  0  0  0  0
   -0.7180   -0.0932   -0.2012 C   0  0  0  0  0  0  0  0  0  0  0  0
   -0.8686    0.5909    0.9317 C   0  0  0  0  0  0  0  0  0  0  0  0
   -0.0264    1.6251    1.2160 O   0  0  0  0  0  0  0  0  0  0  0  0
   -0.1721    2.3556    2.4054 C   0  0  0  0  0  0  0  0  0  0  0  0
   -1.8603    0.2669    1.8143 C   0  0  0  0  0  0  0  0  0  0  0  0
   -2.7118   -0.7606    1.5514 C   0  0  0  0  0  0  0  0  0  0  0  0
   -2.5733   -1.4783    0.3888 C   0  0  0  0  0  0  0  0  0  0  0  0
   -3.4421   -2.5127    0.1384 C   0  0  0  0  0  0  0  0  0  0  0  0
   -3.3365   -3.2468   -1.0036 C   0  0  0  0  0  0  0  0  0  0  0  0
   -2.3411   -2.9326   -1.9046 C   0  0  0  0  0  0  0  0  0  0  0  0
   -1.4704   -1.8935   -1.6502 C   0  0  0  0  0  0  0  0  0  0  0  0
   -1.5488   -1.1327   -0.5080 C   0  0  0  0  0  0  0  0  0  0  0  0
  1  2  1  0
  2  3  1  0
  3  4  2  0
  3  5  1  0
  5  6  2  0
  6  7  1  0
  6  8  1  0
  8  9  1  0
  9 10  2  0
  9 11  1  0
 11 12  1  0
 12 13  1  1
 13 14  2  0
 14 15  1  0
 15 16  1  0
 14 17  1  0
 17 18  2  0
 18 19  1  0
 19 20  2  0
 20 21  1  0
 21 22  2  0
 22 23  1  0
 23 24  2  0
 12  5  1  0
 24 13  1  0
 24 19  1  0
M  END
>  <zinc_id>  (1) 
ZINC000000974831

>  <smiles>  (1) 
COC(=O)C1=C(C)NC(=O)N[C@@H]1c1c(OC)ccc2ccccc12

$$$$
