
     RDKit          3D

 21 22  0  0  0  0  0  0  0  0999 V2000
    6.5050   -0.4088    0.1580 C   0  0  0  0  0  0  0  0  0  0  0  0
    5.0251   -0.1751    0.1440 C   0  0  0  0  0  0  0  0  0  0  0  0
    4.2359   -0.6377   -0.8924 C   0  0  0  0  0  0  0  0  0  0  0  0
    2.8677   -0.3652   -0.7939 C   0  0  0  0  0  0  0  0  0  0  0  0
    2.3444    0.3206    0.2669 C   0  0  0  0  0  0  0  0  0  0  0  0
    0.9790    0.6336    0.3776 N   0  0  0  0  0  0  0  0  0  0  0  0
    0.0897    0.2674   -0.6625 C   0  0  0  0  0  0  0  0  0  0  0  0
    0.5310   -0.3553   -1.6775 O   0  0  0  0  0  0  0  0  0  0  0  0
   -1.3158    0.6160   -0.5665 C   0  0  0  0  0  0  0  0  0  0  0  0
   -1.7219    1.9179   -0.7734 C   0  0  0  0  0  0  0  0  0  0  0  0
   -3.0270    2.3241   -0.6660 C   0  0  0  0  0  0  0  0  0  0  0  0
   -3.9543    1.3679   -0.3362 C   0  0  0  0  0  0  0  0  0  0  0  0
   -3.6163    0.0483   -0.1197 C   0  0  0  0  0  0  0  0  0  0  0  0
   -4.6357   -0.8807    0.1955 N   0  0  0  0  0  4  0  0  0  0  0  0
   -4.4269   -1.8674    0.9168 O   0  0  0  0  0  0  0  0  0  0  0  0
   -5.9116   -0.6940   -0.3114 O   0  0  0  0  0  1  0  0  0  0  0  0
   -2.2825   -0.2966   -0.2426 C   0  0  0  0  0  0  0  0  0  0  0  0
   -1.9326   -1.7301   -0.0171 C   0  0  0  0  0  0  0  0  0  0  0  0
    3.1518    0.7815    1.3055 C   0  0  0  0  0  0  0  0  0  0  0  0
    2.5891    1.5396    2.4660 C   0  0  0  0  0  0  0  0  0  0  0  0
    4.5059    0.5229    1.2290 C   0  0  0  0  0  0  0  0  0  0  0  0
  1  2  1  0
  2  3  2  0
  3  4  1  0
  4  5  2  0
  5  6  1  0
  6  7  1  0
  7  8  2  0
  7  9  1  0
  9 10  2  0
 10 11  1  0
 11 12  2  0
 12 13  1  0
 13 14  1  0
 14 15  2  0
 14 16  1  0
 13 17  2  0
 17 18  1  0
  5 19  1  0
 19 20  1  0
 19 21  2  0
 21  2  1  0
 17  9  1  0
M  CHG  2  14   1  16  -1
M  END
>  <zinc_id>  (1) 
ZINC000000300577

>  <smiles>  (1) 
Cc1ccc(NC(=O)c2cccc([N+](=O)[O-])c2C)c(C)c1

$$$$
