
     RDKit          3D

 20 22  0  0  0  0  0  0  0  0999 V2000
   -3.7069   -2.9861    0.0936 C   0  0  0  0  0  0  0  0  0  0  0  0
   -2.7531   -1.8527    0.3180 C   0  0  0  0  0  0  0  0  0  0  0  0
   -2.1984   -1.5405    1.5422 C   0  0  0  0  0  0  0  0  0  0  0  0
   -1.3919   -0.4297    1.2525 C   0  0  0  0  0  0  0  0  0  0  0  0
   -1.4855   -0.1405   -0.0298 C   0  0  0  0  0  0  0  0  0  0  0  0
   -0.8410    0.9677   -0.9518 C   0  0  1  0  0  0  0  0  0  0  0  0
   -0.2444    1.9126    0.2434 C   0  0  0  0  0  0  0  0  0  0  0  0
   -1.3254    2.3494    1.0446 N   0  0  0  0  0  4  0  0  0  0  0  0
   -1.3462    2.1090    2.2516 O   0  0  0  0  0  0  0  0  0  0  0  0
   -2.3439    3.0473    0.4748 O   0  0  0  0  0  1  0  0  0  0  0  0
    0.5677    0.2886   -1.3145 C   0  0  0  0  0  0  0  0  0  0  0  0
    0.8627   -0.1135   -2.5887 C   0  0  0  0  0  0  0  0  0  0  0  0
    2.1027   -0.6311   -2.5134 N   0  0  0  0  0  0  0  0  0  0  0  0
    2.5748   -0.5617   -1.2514 C   0  0  0  0  0  0  0  0  0  0  0  0
    3.7326   -0.9190   -0.6001 C   0  0  0  0  0  0  0  0  0  0  0  0
    3.9021   -0.7003    0.7479 C   0  0  0  0  0  0  0  0  0  0  0  0
    2.8864   -0.1012    1.4968 C   0  0  0  0  0  0  0  0  0  0  0  0
    1.7203    0.2636    0.8640 C   0  0  0  0  0  0  0  0  0  0  0  0
    1.5864    0.0285   -0.4891 C   0  0  0  0  0  0  0  0  0  0  0  0
   -2.2989   -0.9902   -0.5904 O   0  0  0  0  0  0  0  0  0  0  0  0
  1  2  1  0
  2  3  2  0
  3  4  1  0
  4  5  2  0
  5  6  1  0
  6  7  1  1
  7  8  1  0
  8  9  2  0
  8 10  1  0
  6 11  1  0
 11 12  2  0
 12 13  1  0
 13 14  1  0
 14 15  2  0
 15 16  1  0
 16 17  2  0
 17 18  1  0
 18 19  2  0
  5 20  1  0
 20  2  1  0
 19 11  1  0
 19 14  1  0
M  CHG  2   8   1  10  -1
M  END
>  <zinc_id>  (1) 
ZINC000003289680

>  <smiles>  (1) 
Cc1ccc([C@@H](C[N+](=O)[O-])c2c[nH]c3ccccc23)o1

$$$$
