
     RDKit          3D

 20 22  0  0  0  0  0  0  0  0999 V2000
   -2.0498    3.1924    0.2582 C   0  0  0  0  0  0  0  0  0  0  0  0
   -1.4281    1.9270    0.3730 O   0  0  0  0  0  0  0  0  0  0  0  0
   -2.2445    0.8026    0.1896 C   0  0  0  0  0  0  0  0  0  0  0  0
   -3.6006    0.9212   -0.0918 C   0  0  0  0  0  0  0  0  0  0  0  0
   -4.3863   -0.2012   -0.2687 C   0  0  0  0  0  0  0  0  0  0  0  0
   -5.7475   -0.0527   -0.5508 O   0  0  0  0  0  0  0  0  0  0  0  0
   -3.7720   -1.4160   -0.1549 C   0  0  0  0  0  0  0  0  0  0  0  0
   -2.4376   -1.5823    0.1214 C   0  0  0  0  0  0  0  0  0  0  0  0
   -1.6442   -0.4432    0.3002 C   0  0  0  0  0  0  0  0  0  0  0  0
   -0.2700   -0.5315    0.5857 N   0  0  0  0  0  0  0  0  0  0  0  0
    0.4916   -1.7831    0.7297 C   0  0  0  0  0  0  0  0  0  0  0  0
    1.8405   -1.3282    0.2246 C   0  0  0  0  0  0  0  0  0  0  0  0
    2.9409   -2.0321   -0.2371 C   0  0  0  0  0  0  0  0  0  0  0  0
    4.0629   -1.4256   -0.6490 N   0  0  0  0  0  0  0  0  0  0  0  0
    4.1285   -0.0766   -0.6148 C   0  0  0  0  0  0  0  0  0  0  0  0
    5.3685    0.6460   -1.0678 C   0  0  0  0  0  0  0  0  0  0  0  0
    3.0725    0.6783   -0.1681 C   0  0  0  0  0  0  0  0  0  0  0  0
    3.1250    2.0818   -0.1263 O   0  0  0  0  0  0  0  0  0  0  0  0
    1.9222    0.0439    0.2537 C   0  0  0  0  0  0  0  0  0  0  0  0
    0.6281    0.5792    0.7862 C   0  0  0  0  0  0  0  0  0  0  0  0
  1  2  1  0
  2  3  1  0
  3  4  2  0
  4  5  1  0
  5  6  1  0
  5  7  2  0
  7  8  1  0
  8  9  2  0
  9 10  1  0
 10 11  1  0
 11 12  1  0
 12 13  2  0
 13 14  1  0
 14 15  2  0
 15 16  1  0
 15 17  1  0
 17 18  1  0
 17 19  2  0
 19 20  1  0
  9  3  1  0
 20 10  1  0
 19 12  1  0
M  END
>  <zinc_id>  (1) 
ZINC000000015588

>  <smiles>  (1) 
COc1cc(O)ccc1N1Cc2cnc(C)c(O)c2C1

$$$$
