
     RDKit          3D

 18 19  0  0  0  0  0  0  0  0999 V2000
    5.0219   -1.7389   -0.4817 C   0  0  0  0  0  0  0  0  0  0  0  0
    4.1581   -0.6297   -1.3007 C   0  0  1  0  0  0  0  0  0  0  0  0
    2.8911   -0.7388   -0.4178 C   0  0  0  0  0  0  0  0  0  0  0  0
    2.3654    0.1203    0.3389 C   0  0  0  0  0  0  0  0  0  0  0  0
    1.1545   -0.1212    1.1231 N   0  0  0  0  0  0  0  0  0  0  0  0
   -0.0486    0.4086    0.7080 N   0  0  0  0  0  0  0  0  0  0  0  0
   -1.1804   -0.4294    0.5725 C   0  0  0  0  0  0  0  0  0  0  0  0
   -1.0524   -1.6541    0.8396 O   0  0  0  0  0  0  0  0  0  0  0  0
   -2.4665    0.0954    0.1368 C   0  0  0  0  0  0  0  0  0  0  0  0
   -2.9197    1.3243    0.5070 C   0  0  0  0  0  0  0  0  0  0  0  0
   -4.1420    1.7901    0.0764 C   0  0  0  0  0  0  0  0  0  0  0  0
   -4.9347    1.0186   -0.7416 C   0  0  0  0  0  0  0  0  0  0  0  0
   -4.4615   -0.2219   -1.1068 C   0  0  0  0  0  0  0  0  0  0  0  0
   -3.2547   -0.6803   -0.6808 C   0  0  0  0  0  0  0  0  0  0  0  0
   -2.6533   -2.4072   -1.2204 Br  0  0  0  0  0  0  0  0  0  0  0  0
    2.8942    1.4845    0.5451 C   0  0  0  0  0  0  0  0  0  0  0  0
    3.7940    1.7522   -0.6345 C   0  0  0  0  0  0  0  0  0  0  0  0
    4.8347    0.6272   -0.5467 C   0  0  0  0  0  0  0  0  0  0  0  0
  2  1  1  1
  2  3  1  0
  3  4  2  0
  4  5  1  0
  5  6  1  0
  6  7  1  0
  7  8  2  0
  7  9  1  0
  9 10  2  0
 10 11  1  0
 11 12  2  0
 12 13  1  0
 13 14  2  0
 14 15  1  0
  4 16  1  0
 16 17  1  0
 17 18  1  0
 18  2  1  0
 14  9  1  0
M  END
>  <zinc_id>  (1) 
ZINC000003233626

>  <smiles>  (1) 
C[C@H]1C=C(NNC(=O)c2ccccc2Br)CCC1

$$$$
