
     RDKit          3D

 18 18  0  0  0  0  0  0  0  0999 V2000
    1.8843   -1.4180   -1.2101 C   0  0  0  0  0  0  0  0  0  0  0  0
    1.8547   -0.4722   -0.3106 C   0  0  0  0  0  0  0  0  0  0  0  0
    2.3999   -0.6455    1.0542 C   0  0  0  0  0  0  0  0  0  0  0  0
    3.5877    0.3033    1.2282 C   0  0  0  0  0  0  0  0  0  0  0  0
    4.5850   -0.1540    0.1515 C   0  0  0  0  0  0  0  0  0  0  0  0
    5.8506    0.6579    0.1602 C   0  0  0  0  0  0  0  0  0  0  0  0
    4.9618   -1.5956    0.4937 C   0  0  0  0  0  0  0  0  0  0  0  0
    1.2495    0.8126   -0.5901 N   0  0  0  0  0  0  0  0  0  0  0  0
   -0.0813    0.8742   -0.0745 N   0  0  0  0  0  0  0  0  0  0  0  0
   -1.0799    0.1999   -0.8060 C   0  0  0  0  0  0  0  0  0  0  0  0
   -0.7753   -0.3944   -1.8535 O   0  0  0  0  0  0  0  0  0  0  0  0
   -2.4433    0.2029   -0.3400 C   0  0  0  0  0  0  0  0  0  0  0  0
   -3.3407    1.1823   -0.6850 C   0  0  0  0  0  0  0  0  0  0  0  0
   -4.6397    1.2014   -0.2310 C   0  0  0  0  0  0  0  0  0  0  0  0
   -5.1011    0.2148    0.6062 C   0  0  0  0  0  0  0  0  0  0  0  0
   -4.2213   -0.7835    0.9680 C   0  0  0  0  0  0  0  0  0  0  0  0
   -2.9260   -0.7851    0.5047 C   0  0  0  0  0  0  0  0  0  0  0  0
   -1.7650   -2.0588    0.9342 Cl  0  0  0  0  0  0  0  0  0  0  0  0
  1  2  2  0
  2  3  1  0
  3  4  1  0
  4  5  1  0
  5  6  1  0
  5  7  1  0
  2  8  1  0
  8  9  1  0
  9 10  1  0
 10 11  2  0
 10 12  1  0
 12 13  2  0
 13 14  1  0
 14 15  2  0
 15 16  1  0
 16 17  2  0
 17 18  1  0
 17 12  1  0
M  END
>  <zinc_id>  (1) 
ZINC000003233624

>  <smiles>  (1) 
C=C(CCC(C)C)NNC(=O)c1ccccc1Cl

$$$$
