
     RDKit          3D

 21 23  0  0  0  0  0  0  0  0999 V2000
    5.4653   -1.8017    0.8051 C   0  0  0  0  0  0  0  0  0  0  0  0
    5.2528   -0.4449    0.1729 C   0  0  0  0  0  0  0  0  0  0  0  0
    5.9862   -0.4200   -1.1351 C   0  0  0  0  0  0  0  0  0  0  0  0
    5.7193    0.6658    1.0651 C   0  0  0  0  0  0  0  0  0  0  0  0
    3.7589   -0.3574   -0.0996 C   0  0  0  0  0  0  0  0  0  0  0  0
    3.2314   -1.2024   -1.0638 C   0  0  0  0  0  0  0  0  0  0  0  0
    1.5566   -0.8233   -0.9840 S   0  0  0  0  0  0  0  0  0  0  0  0
    1.6489    0.3786    0.2741 C   0  0  0  0  0  0  0  0  0  0  0  0
    0.5358    1.0607    0.9073 N   0  0  0  0  0  0  0  0  0  0  0  0
   -0.7540    0.6685    0.3817 C   0  0  0  0  0  0  0  0  0  0  0  0
   -0.8330   -0.1122   -0.7656 C   0  0  0  0  0  0  0  0  0  0  0  0
   -2.0388   -0.5833   -1.2563 C   0  0  0  0  0  0  0  0  0  0  0  0
   -3.2139   -0.2745   -0.5970 C   0  0  0  0  0  0  0  0  0  0  0  0
   -4.4441   -0.7530   -1.0354 C   0  0  0  0  0  0  0  0  0  0  0  0
   -5.6161   -0.4680   -0.3597 C   0  0  0  0  0  0  0  0  0  0  0  0
   -5.5538    0.3123    0.7896 C   0  0  0  0  0  0  0  0  0  0  0  0
   -4.3060    0.7575    1.1852 C   0  0  0  0  0  0  0  0  0  0  0  0
   -4.2810    1.5403    2.3505 O   0  0  0  0  0  0  0  0  0  0  0  0
   -3.1183    0.4985    0.5318 C   0  0  0  0  0  0  0  0  0  0  0  0
   -1.9192    0.9503    0.9934 N   0  0  0  0  0  0  0  0  0  0  0  0
    2.9229    0.4081    0.5314 N   0  0  0  0  0  0  0  0  0  0  0  0
  1  2  1  0
  2  3  1  0
  2  4  1  0
  2  5  1  0
  5  6  2  0
  6  7  1  0
  7  8  1  0
  8  9  1  0
  9 10  1  0
 10 11  2  0
 11 12  1  0
 12 13  2  0
 13 14  1  0
 14 15  2  0
 15 16  1  0
 16 17  2  0
 17 18  1  0
 17 19  1  0
 19 20  2  0
  8 21  2  0
 21  5  1  0
 20 10  1  0
 19 13  1  0
M  END
>  <zinc_id>  (1) 
ZINC000003101851

>  <smiles>  (1) 
CC(C)(C)c1csc(Nc2ccc3cccc(O)c3n2)n1

$$$$
