
     RDKit          3D

 20 22  0  0  0  0  0  0  0  0999 V2000
    4.6747    1.9810    0.7915 C   0  0  0  0  0  0  0  0  0  0  0  0
    5.2238    1.1124   -0.3429 C   0  0  0  0  0  0  0  0  0  0  0  0
    4.0694    0.7899   -1.1790 N   0  0  0  0  0  0  0  0  0  0  0  0
    3.0497   -0.0661   -0.7209 C   0  0  0  0  0  0  0  0  0  0  0  0
    3.0993   -1.0391    0.0592 N   0  0  0  0  0  0  0  0  0  0  0  0
    1.9766   -1.7480    0.3714 C   0  0  0  0  0  0  0  0  0  0  0  0
    1.9926   -2.6152    1.3382 O   0  0  0  0  0  0  0  0  0  0  0  0
    0.7616   -1.4908   -0.4474 C   0  0  1  0  0  0  0  0  0  0  0  0
   -0.1029   -0.6908    0.7283 C   0  0  2  0  0  0  0  0  0  0  0  0
   -0.1769   -1.9498    1.6948 C   0  0  0  0  0  0  0  0  0  0  0  0
   -1.4512   -0.7209   -0.0042 C   0  0  0  0  0  0  0  0  0  0  0  0
   -2.1877   -1.5355   -0.7337 C   0  0  0  0  0  0  0  0  0  0  0  0
   -3.3892   -0.9557   -1.0449 N   0  0  0  0  0  0  0  0  0  0  0  0
   -3.3999    0.2517   -0.5039 C   0  0  0  0  0  0  0  0  0  0  0  0
   -4.3629    1.2615   -0.6119 C   0  0  0  0  0  0  0  0  0  0  0  0
   -4.0582    2.4682   -0.0028 C   0  0  0  0  0  0  0  0  0  0  0  0
   -2.9090    2.7175    0.6678 C   0  0  0  0  0  0  0  0  0  0  0  0
   -1.9514    1.6668    0.7417 C   0  0  0  0  0  0  0  0  0  0  0  0
   -2.2305    0.4590    0.1534 C   0  0  0  0  0  0  0  0  0  0  0  0
    1.3722    0.1038   -1.2848 S   0  0  0  0  0  0  0  0  0  0  0  0
  1  2  1  0
  2  3  1  0
  3  4  1  0
  4  5  2  0
  5  6  1  0
  6  7  2  0
  8  6  1  1
  8  9  1  0
  9 10  1  1
  9 11  1  0
 11 12  2  0
 12 13  1  0
 13 14  1  0
 14 15  2  0
 15 16  1  0
 16 17  2  0
 17 18  1  0
 18 19  2  0
  8 20  1  0
 20  4  1  0
 19 11  1  0
 19 14  1  0
M  END
>  <zinc_id>  (1) 
ZINC000003590134

>  <smiles>  (1) 
CCNC1=NC(=O)[C@@H]([C@H](C)c2c[nH]c3ccccc23)S1

$$$$
