
     RDKit          3D

 23 27  0  0  0  0  0  0  0  0999 V2000
    0.8357    1.1556    1.9458 C   0  0  0  0  0  0  0  0  0  0  0  0
    1.1766   -0.1286    1.1487 C   0  0  2  0  0  0  0  0  0  0  0  0
    2.0344   -0.8400    1.9263 C   0  0  0  0  0  0  0  0  0  0  0  0
    3.2614   -1.0522    1.5905 C   0  0  0  0  0  0  0  0  0  0  0  0
    3.8899   -0.6036    0.3636 C   0  0  0  0  0  0  0  0  0  0  0  0
    5.0649   -0.7583    0.0092 O   0  0  0  0  0  0  0  0  0  0  0  0
    3.0225    0.1175   -0.5594 C   0  0  0  0  0  0  0  0  0  0  0  0
    3.1260    0.6252   -1.7925 N   0  0  0  0  0  0  0  0  0  0  0  0
    1.9290    1.0880   -2.1898 C   0  0  0  0  0  0  0  0  0  0  0  0
    1.0001    0.8736   -1.1707 C   0  0  0  0  0  0  0  0  0  0  0  0
    1.7625    0.2613   -0.1671 C   0  0  0  0  0  0  0  0  0  0  0  0
   -0.4618    1.0954   -1.0782 C   0  0  0  0  0  0  0  0  0  0  0  0
   -0.7156    0.9162    0.4278 C   0  0  2  0  0  0  0  0  0  0  0  0
   -0.1554   -0.6707    0.4962 C   0  0  2  0  0  0  0  0  0  0  0  0
   -1.0250   -1.1464    1.7642 C   0  0  0  0  0  0  0  0  0  0  0  0
   -2.1929   -1.6851    0.9049 C   0  0  0  0  0  0  0  0  0  0  0  0
   -2.5281   -0.7088   -0.1554 C   0  0  1  0  0  0  0  0  0  0  0  0
   -2.1003   -0.7968   -1.4758 C   0  0  0  0  0  0  0  0  0  0  0  0
   -4.1476   -0.5792   -0.2677 C   0  0  1  0  0  0  0  0  0  0  0  0
   -4.3514   -0.3524    1.2115 O   0  0  0  0  0  0  0  0  0  0  0  0
   -4.2171    1.0046   -0.6491 C   0  0  0  0  0  0  0  0  0  0  0  0
   -2.8713    1.5226   -0.6183 C   0  0  0  0  0  0  0  0  0  0  0  0
   -2.3366    0.6621    0.6285 C   0  0  2  0  0  0  0  0  0  0  0  0
  2  1  1  1
  2  3  1  0
  3  4  2  0
  4  5  1  0
  5  6  2  0
  5  7  1  0
  7  8  1  0
  8  9  1  0
  9 10  2  0
 10 11  1  0
 10 12  1  0
 13 12  1  6
 13 14  1  0
 14 15  1  1
 15 16  1  0
 16 17  1  0
 17 18  1  6
 17 19  1  0
 19 20  1  1
 19 21  1  0
 21 22  1  0
 23 22  1  6
 11  2  1  0
 23 13  1  0
 14  2  1  0
 23 17  1  0
 11  7  2  0
M  END
>  <zinc_id>  (1) 
ZINC000000018239

>  <smiles>  (1) 
C[C@]12C=CC(=O)c3[nH]cc(c31)C[C@@H]1[C@@H]2CC[C@@]2(C)[C@@H](O)CC[C@H]12

$$$$
