
     RDKit          3D

 19 20  0  0  0  0  0  0  0  0999 V2000
    4.4528   -0.3323   -1.8187 C   0  0  0  0  0  0  0  0  0  0  0  0
    4.2592   -0.3763   -0.3197 C   0  0  0  0  0  0  0  0  0  0  0  0
    4.4196   -1.7883    0.1554 C   0  0  0  0  0  0  0  0  0  0  0  0
    5.2100    0.4718    0.2538 O   0  0  0  0  0  0  0  0  0  0  0  0
    2.8882    0.0801    0.0009 C   0  0  0  0  0  0  0  0  0  0  0  0
    1.7741    0.4640    0.2481 C   0  0  0  0  0  0  0  0  0  0  0  0
    0.4101    0.9464    0.5372 C   0  0  2  0  0  0  0  0  0  0  0  0
    0.1210    2.2174   -0.2703 C   0  0  0  0  0  0  0  0  0  0  0  0
    0.2490    1.2627    1.8815 O   0  0  0  0  0  0  0  0  0  0  0  0
   -0.5298   -0.0823    0.0651 C   0  0  0  0  0  0  0  0  0  0  0  0
   -0.1433   -1.2952   -0.4603 C   0  0  0  0  0  0  0  0  0  0  0  0
   -1.0782   -2.2326   -0.8921 C   0  0  0  0  0  0  0  0  0  0  0  0
   -2.4184   -1.9584   -0.7995 C   0  0  0  0  0  0  0  0  0  0  0  0
   -2.8403   -0.7384   -0.2717 C   0  0  0  0  0  0  0  0  0  0  0  0
   -4.1971   -0.5069   -0.1982 C   0  0  0  0  0  0  0  0  0  0  0  0
   -4.6210    0.6931    0.3208 C   0  0  0  0  0  0  0  0  0  0  0  0
   -3.7091    1.6289    0.7515 C   0  0  0  0  0  0  0  0  0  0  0  0
   -2.3637    1.3744    0.6676 C   0  0  0  0  0  0  0  0  0  0  0  0
   -1.8833    0.1718    0.1487 C   0  0  0  0  0  0  0  0  0  0  0  0
  1  2  1  0
  2  3  1  0
  2  4  1  0
  2  5  1  0
  5  6  3  0
  6  7  1  0
  7  8  1  6
  7  9  1  0
  7 10  1  0
 10 11  2  0
 11 12  1  0
 12 13  2  0
 13 14  1  0
 14 15  2  0
 15 16  1  0
 16 17  2  0
 17 18  1  0
 18 19  2  0
 19 10  1  0
 19 14  1  0
M  END
>  <zinc_id>  (1) 
ZINC000000491454

>  <smiles>  (1) 
CC(C)(O)C#C[C@](C)(O)c1cccc2ccccc12

$$$$
