
     RDKit          3D

 22 24  0  0  0  0  0  0  0  0999 V2000
    4.0758   -3.5511    1.8286 C   0  0  0  0  0  0  0  0  0  0  0  0
    4.6418   -2.2804    1.5657 O   0  0  0  0  0  0  0  0  0  0  0  0
    3.7674   -1.2819    1.1041 C   0  0  0  0  0  0  0  0  0  0  0  0
    4.2488   -0.0073    0.8237 C   0  0  0  0  0  0  0  0  0  0  0  0
    3.3622    0.9722    0.3653 C   0  0  0  0  0  0  0  0  0  0  0  0
    2.0237    0.6949    0.1877 C   0  0  0  0  0  0  0  0  0  0  0  0
    0.9613    1.4605   -0.2421 C   0  0  0  0  0  0  0  0  0  0  0  0
    1.0348    2.8267   -0.6281 N   0  0  0  0  0  4  0  0  0  0  0  0
    2.1088    3.4391   -0.5999 O   0  0  0  0  0  0  0  0  0  0  0  0
   -0.0846    3.5055   -1.0435 O   0  0  0  0  0  1  0  0  0  0  0  0
   -0.1706    0.6700   -0.2293 C   0  0  0  0  0  0  0  0  0  0  0  0
   -1.4712    1.1249   -0.6141 N   0  0  0  0  0  0  0  0  0  0  0  0
   -2.6094    0.2985   -0.5920 C   0  0  0  0  0  0  0  0  0  0  0  0
   -2.5620   -1.0152   -0.1978 C   0  0  0  0  0  0  0  0  0  0  0  0
   -3.7188   -1.7998   -0.1916 C   0  0  0  0  0  0  0  0  0  0  0  0
   -4.9285   -1.2663   -0.5819 C   0  0  0  0  0  0  0  0  0  0  0  0
   -6.0481   -2.0616   -0.5654 F   0  0  0  0  0  0  0  0  0  0  0  0
   -4.9768    0.0527   -0.9779 C   0  0  0  0  0  0  0  0  0  0  0  0
   -3.8176    0.8362   -0.9833 C   0  0  0  0  0  0  0  0  0  0  0  0
    0.2053   -0.5407    0.1982 N   0  0  0  0  0  0  0  0  0  0  0  0
    1.5360   -0.5653    0.4627 C   0  0  0  0  0  0  0  0  0  0  0  0
    2.4216   -1.5116    0.9112 C   0  0  0  0  0  0  0  0  0  0  0  0
  1  2  1  0
  2  3  1  0
  3  4  2  0
  4  5  1  0
  5  6  2  0
  6  7  1  0
  7  8  1  0
  8  9  2  0
  8 10  1  0
  7 11  2  0
 11 12  1  0
 12 13  1  0
 13 14  2  0
 14 15  1  0
 15 16  2  0
 16 17  1  0
 16 18  1  0
 18 19  2  0
 11 20  1  0
 20 21  1  0
 21 22  2  0
 22  3  1  0
 21  6  1  0
 19 13  1  0
M  CHG  2   8   1  10  -1
M  END
>  <zinc_id>  (1) 
ZINC000004352527

>  <smiles>  (1) 
COc1ccc2c([N+](=O)[O-])c(Nc3ccc(F)cc3)[nH]c2c1

$$$$
