
     RDKit          3D

 18 19  0  0  0  0  0  0  0  0999 V2000
    5.0054    0.6506    0.1494 C   0  0  0  0  0  0  0  0  0  0  0  0
    4.9263   -0.8644    0.1517 C   0  0  0  0  0  0  0  0  0  0  0  0
    3.9649   -1.3975   -0.8870 C   0  0  0  0  0  0  0  0  0  0  0  0
    2.6117   -0.8501   -0.5848 C   0  0  0  0  0  0  0  0  0  0  0  0
    2.1875    0.3150   -1.1498 C   0  0  0  0  0  0  0  0  0  0  0  0
    0.9117    0.7915   -0.8341 C   0  0  0  0  0  0  0  0  0  0  0  0
    0.0881    0.1114    0.0263 C   0  0  0  0  0  0  0  0  0  0  0  0
   -1.2894    0.6084    0.3379 C   0  0  0  0  0  0  0  0  0  0  0  0
   -1.4575    1.7665    1.0443 C   0  0  0  0  0  0  0  0  0  0  0  0
   -0.3827    2.6889    1.5796 C   0  0  0  0  0  0  0  0  0  0  0  0
   -3.1376    1.9222    1.1750 S   0  0  0  0  0  0  0  0  0  0  0  0
   -3.6139    0.5217    0.3334 C   0  0  0  0  0  0  0  0  0  0  0  0
   -4.9484    0.0210    0.0550 N   0  0  0  0  0  0  0  0  0  0  0  0
   -2.4202   -0.0444   -0.0346 C   0  0  0  0  0  0  0  0  0  0  0  0
   -2.4101   -1.3103   -0.7979 C   0  0  0  0  0  0  0  0  0  0  0  0
   -2.4122   -2.3122   -1.4122 N   0  0  0  0  0  0  0  0  0  0  0  0
    0.5565   -1.0646    0.5747 C   0  0  0  0  0  0  0  0  0  0  0  0
    1.8200   -1.5537    0.2731 C   0  0  0  0  0  0  0  0  0  0  0  0
  1  2  1  0
  2  3  1  0
  3  4  1  0
  4  5  2  0
  5  6  1  0
  6  7  2  0
  7  8  1  0
  8  9  2  0
  9 10  1  0
  9 11  1  0
 11 12  1  0
 12 13  1  0
 12 14  2  0
 14 15  1  0
 15 16  3  0
  7 17  1  0
 17 18  2  0
 18  4  1  0
 14  8  1  0
M  END
>  <zinc_id>  (1) 
ZINC000000034149

>  <smiles>  (1) 
CCCc1ccc(-c2c(C)sc(N)c2C#N)cc1

$$$$
