
     RDKit          3D

 17 17  0  0  0  0  0  0  0  0999 V2000
    2.3132   -2.1713   -0.6544 C   0  0  0  0  0  0  0  0  0  0  0  0
    2.7165   -0.9294   -0.5211 C   0  0  0  0  0  0  0  0  0  0  0  0
    4.0057   -0.4634   -1.0691 C   0  0  0  0  0  0  0  0  0  0  0  0
    4.8482    0.0384    0.0248 C   0  0  0  0  0  0  0  0  0  0  0  0
    4.3593    1.1566    0.8281 C   0  0  0  0  0  0  0  0  0  0  0  0
    5.8852   -0.8316    0.5702 C   0  0  0  0  0  0  0  0  0  0  0  0
    1.9008   -0.0026    0.1648 N   0  0  0  0  0  0  0  0  0  0  0  0
    0.5276   -0.1944    0.2366 N   0  0  0  0  0  0  0  0  0  0  0  0
   -0.4394    0.6824   -0.3203 C   0  0  0  0  0  0  0  0  0  0  0  0
   -0.0209    1.7032   -0.9200 O   0  0  0  0  0  0  0  0  0  0  0  0
   -1.8731    0.4180   -0.2070 C   0  0  0  0  0  0  0  0  0  0  0  0
   -2.7604    1.3139   -0.7723 C   0  0  0  0  0  0  0  0  0  0  0  0
   -4.1314    1.1143   -0.6963 C   0  0  0  0  0  0  0  0  0  0  0  0
   -4.6604    0.0248   -0.0599 C   0  0  0  0  0  0  0  0  0  0  0  0
   -6.5285   -0.3169    0.0844 Br  0  0  0  0  0  0  0  0  0  0  0  0
   -3.7514   -0.8758    0.5091 C   0  0  0  0  0  0  0  0  0  0  0  0
   -2.3908   -0.6662    0.4267 C   0  0  0  0  0  0  0  0  0  0  0  0
  1  2  2  0
  2  3  1  0
  3  4  1  0
  4  5  1  0
  4  6  1  0
  2  7  1  0
  7  8  1  0
  8  9  1  0
  9 10  2  0
  9 11  1  0
 11 12  2  0
 12 13  1  0
 13 14  2  0
 14 15  1  0
 14 16  1  0
 16 17  2  0
 17 11  1  0
M  END
>  <zinc_id>  (1) 
ZINC000003145349

>  <smiles>  (1) 
C=C(CC(C)C)NNC(=O)c1ccc(Br)cc1

$$$$
