
     RDKit          3D

 21 23  0  0  0  0  0  0  0  0999 V2000
    1.7614    3.0658    1.1123 O   0  0  0  0  0  0  0  0  0  0  0  0
    1.9584    1.8610    0.7724 C   0  0  0  0  0  0  0  0  0  0  0  0
    2.7833    0.8839    1.4115 N   0  0  0  0  0  0  0  0  0  0  0  0
    3.0089   -0.1654    0.4394 C   0  0  0  0  0  0  0  0  0  0  0  0
    3.1662   -1.5189    1.0631 C   0  0  0  0  0  0  0  0  0  0  0  0
    4.2394   -2.2254    0.2872 C   0  0  0  0  0  0  0  0  0  0  0  0
    4.7538   -1.2411   -0.7317 C   0  0  0  0  0  0  0  0  0  0  0  0
    4.2770    0.1161   -0.3043 C   0  0  0  0  0  0  0  0  0  0  0  0
    1.7975   -0.0696   -0.4279 C   0  0  0  0  0  0  0  0  0  0  0  0
    1.2768   -1.0071   -1.0856 O   0  0  0  0  0  0  0  0  0  0  0  0
    1.3395    1.2800   -0.3734 N   0  0  0  0  0  0  0  0  0  0  0  0
    0.4221    1.9403   -1.3003 C   0  0  0  0  0  0  0  0  0  0  0  0
   -1.0045    1.7491   -0.7976 C   0  0  0  0  0  0  0  0  0  0  0  0
   -1.2423    0.3699   -0.7529 O   0  0  0  0  0  0  0  0  0  0  0  0
   -2.4710   -0.1176   -0.3293 C   0  0  0  0  0  0  0  0  0  0  0  0
   -2.7349   -1.4678   -0.2745 C   0  0  0  0  0  0  0  0  0  0  0  0
   -3.9736   -1.9192    0.1537 C   0  0  0  0  0  0  0  0  0  0  0  0
   -4.9803   -1.0576    0.5375 C   0  0  0  0  0  0  0  0  0  0  0  0
   -6.1947   -1.5241    0.9566 F   0  0  0  0  0  0  0  0  0  0  0  0
   -4.7129    0.2948    0.4815 C   0  0  0  0  0  0  0  0  0  0  0  0
   -3.4700    0.7529    0.0520 C   0  0  0  0  0  0  0  0  0  0  0  0
  1  2  2  0
  2  3  1  0
  3  4  1  0
  4  5  1  0
  5  6  1  0
  6  7  1  0
  7  8  1  0
  4  9  1  0
  9 10  2  0
  9 11  1  0
 11 12  1  0
 12 13  1  0
 13 14  1  0
 14 15  1  0
 15 16  2  0
 16 17  1  0
 17 18  2  0
 18 19  1  0
 18 20  1  0
 20 21  2  0
 11  2  1  0
 21 15  1  0
  8  4  1  0
M  END
>  <zinc_id>  (1) 
ZINC000003329605

>  <smiles>  (1) 
O=C1NC2(CCCC2)C(=O)N1CCOc1ccc(F)cc1

$$$$
