
     RDKit          3D

 20 22  0  0  0  0  0  0  0  0999 V2000
   -6.3039   -0.1627   -1.2562 C   0  0  0  0  0  0  0  0  0  0  0  0
   -4.9373   -0.0353   -0.6342 C   0  0  0  0  0  0  0  0  0  0  0  0
   -4.1861   -1.1433   -0.3285 C   0  0  0  0  0  0  0  0  0  0  0  0
   -2.9088   -1.0227    0.2529 C   0  0  0  0  0  0  0  0  0  0  0  0
   -2.3982    0.2180    0.5221 C   0  0  0  0  0  0  0  0  0  0  0  0
   -0.9725    0.3515    1.1744 C   0  0  2  0  0  0  0  0  0  0  0  0
   -0.4636    1.5405    0.2995 N   0  0  0  0  0  0  0  0  0  0  0  0
    0.8676    1.6774    0.0174 C   0  0  0  0  0  0  0  0  0  0  0  0
    1.4158    2.8233   -0.1069 O   0  0  0  0  0  0  0  0  0  0  0  0
    1.6351    0.4364   -0.1354 C   0  0  0  0  0  0  0  0  0  0  0  0
    2.9955    0.3568   -0.4307 C   0  0  0  0  0  0  0  0  0  0  0  0
    3.5681   -0.8327   -0.5469 C   0  0  0  0  0  0  0  0  0  0  0  0
    5.0014   -1.1636   -0.8555 C   0  0  0  0  0  0  0  0  0  0  0  0
    5.7978    0.1184   -0.6090 C   0  0  0  0  0  0  0  0  0  0  0  0
    5.5259   -2.2163    0.0922 C   0  0  0  0  0  0  0  0  0  0  0  0
    2.2274   -1.8830   -0.2479 S   0  0  0  0  0  0  0  0  0  0  0  0
    1.0115   -0.7438    0.0085 C   0  0  0  0  0  0  0  0  0  0  0  0
   -0.3162   -0.8176    0.2957 N   0  0  0  0  0  0  0  0  0  0  0  0
   -3.1457    1.2986    0.2173 C   0  0  0  0  0  0  0  0  0  0  0  0
   -4.4139    1.2001   -0.3594 C   0  0  0  0  0  0  0  0  0  0  0  0
  1  2  1  0
  2  3  2  0
  3  4  1  0
  4  5  2  0
  6  5  1  6
  6  7  1  0
  7  8  1  0
  8  9  2  0
  8 10  1  0
 10 11  1  0
 11 12  2  0
 12 13  1  0
 13 14  1  0
 13 15  1  0
 12 16  1  0
 16 17  1  0
 17 18  1  0
  5 19  1  0
 19 20  2  0
 20  2  1  0
 18  6  1  0
 17 10  2  0
M  END
>  <zinc_id>  (1) 
ZINC000002737954

>  <smiles>  (1) 
Cc1ccc([C@@H]2NC(=O)c3cc(C(C)C)sc3N2)cc1

$$$$
