
     RDKit          3D

 21 22  0  0  0  0  0  0  0  0999 V2000
    3.2041   -3.0806    1.5932 C   0  0  0  0  0  0  0  0  0  0  0  0
    3.9816   -2.1217    0.7184 C   0  0  0  0  0  0  0  0  0  0  0  0
    3.0315   -1.1094    0.1269 C   0  0  0  0  0  0  0  0  0  0  0  0
    2.0130   -1.7789   -0.6812 C   0  0  0  0  0  0  0  0  0  0  0  0
    0.9636   -1.1049   -1.3786 C   0  0  0  0  0  0  0  0  0  0  0  0
   -0.0672   -0.2834   -0.7513 C   0  0  1  0  0  0  0  0  0  0  0  0
    0.3930    0.9127   -0.0242 C   0  0  0  0  0  0  0  0  0  0  0  0
   -0.5769    1.8585    0.3677 C   0  0  0  0  0  0  0  0  0  0  0  0
   -0.2284    3.0067    1.0359 C   0  0  0  0  0  0  0  0  0  0  0  0
    1.0735    3.2730    1.3448 C   0  0  0  0  0  0  0  0  0  0  0  0
    2.0634    2.3617    0.9743 C   0  0  0  0  0  0  0  0  0  0  0  0
    1.6635    1.2275    0.3072 C   0  0  0  0  0  0  0  0  0  0  0  0
   -1.0201    0.1323   -1.8567 C   0  0  0  0  0  0  0  0  0  0  0  0
   -0.7094    0.0171   -3.0716 O   0  0  0  0  0  0  0  0  0  0  0  0
   -2.2743    0.6565   -1.5198 N   0  0  0  0  0  0  0  0  0  0  0  0
   -2.9014    0.2871   -0.3036 C   0  0  0  0  0  0  0  0  0  0  0  0
   -4.0251    0.7179    0.0593 O   0  0  0  0  0  0  0  0  0  0  0  0
   -2.2210   -0.6331    0.5729 N   0  0  0  0  0  0  0  0  0  0  0  0
   -2.8591   -1.0143    1.8068 C   0  0  0  0  0  0  0  0  0  0  0  0
   -0.9615   -1.1079    0.1573 C   0  0  0  0  0  0  0  0  0  0  0  0
   -0.5430   -2.2168    0.5223 O   0  0  0  0  0  0  0  0  0  0  0  0
  1  2  1  0
  2  3  1  0
  3  4  1  0
  4  5  1  0
  6  5  1  6
  6  7  1  0
  7  8  2  0
  8  9  1  0
  9 10  2  0
 10 11  1  0
 11 12  2  0
  6 13  1  0
 13 14  2  0
 13 15  1  0
 15 16  1  0
 16 17  2  0
 16 18  1  0
 18 19  1  0
 18 20  1  0
 20 21  2  0
 20  6  1  0
 12  7  1  0
M  END
>  <zinc_id>  (1) 
ZINC000003646570

>  <smiles>  (1) 
CCCCC[C@@]1(c2ccccc2)C(=O)NC(=O)N(C)C1=O

$$$$
