
     RDKit          3D

 20 22  0  0  0  0  0  0  0  0999 V2000
    6.4859    0.9482    1.4553 C   0  0  0  0  0  0  0  0  0  0  0  0
    5.5819    0.0810    0.6002 C   0  0  0  0  0  0  0  0  0  0  0  0
    5.2578    0.7045   -0.7360 C   0  0  0  0  0  0  0  0  0  0  0  0
    4.3583   -0.2344   -1.5001 C   0  0  0  0  0  0  0  0  0  0  0  0
    3.0746   -0.4969   -0.7511 C   0  0  0  0  0  0  0  0  0  0  0  0
    1.9501    0.2193   -0.8099 N   0  0  0  0  0  0  0  0  0  0  0  0
    0.9748   -0.3100   -0.0158 C   0  0  0  0  0  0  0  0  0  0  0  0
   -0.3064    0.3217    0.0864 C   0  0  0  0  0  0  0  0  0  0  0  0
   -1.4944   -0.1708    0.0460 C   0  0  0  0  0  0  0  0  0  0  0  0
   -1.9430   -1.5467   -0.1179 C   0  0  0  0  0  0  0  0  0  0  0  0
   -1.1856   -2.5466   -0.2541 O   0  0  0  0  0  0  0  0  0  0  0  0
   -3.3860   -1.5051   -0.0902 N   0  0  0  0  0  0  0  0  0  0  0  0
   -3.8015   -0.1355    0.0866 C   0  0  0  0  0  0  0  0  0  0  0  0
   -5.0828    0.4284    0.1795 C   0  0  0  0  0  0  0  0  0  0  0  0
   -5.1943    1.7945    0.3552 C   0  0  0  0  0  0  0  0  0  0  0  0
   -4.0981    2.6253    0.4433 C   0  0  0  0  0  0  0  0  0  0  0  0
   -2.8489    2.0530    0.3492 C   0  0  0  0  0  0  0  0  0  0  0  0
   -2.7009    0.6793    0.1716 C   0  0  0  0  0  0  0  0  0  0  0  0
    1.5473   -1.4034    0.5483 C   0  0  0  0  0  0  0  0  0  0  0  0
    2.8114   -1.5057    0.0992 N   0  0  0  0  0  0  0  0  0  0  0  0
  1  2  1  0
  2  3  1  0
  3  4  1  0
  4  5  1  0
  5  6  2  0
  6  7  1  0
  7  8  1  0
  8  9  2  3
  9 10  1  0
 10 11  2  0
 10 12  1  0
 12 13  1  0
 13 14  2  0
 14 15  1  0
 15 16  2  0
 16 17  1  0
 17 18  2  0
  7 19  2  0
 19 20  1  0
 20  5  1  0
 18  9  1  0
 18 13  1  0
M  END
>  <zinc_id>  (1) 
ZINC000004302682

>  <smiles>  (1) 
CCCCc1nc(C=C2C(=O)Nc3ccccc32)c[nH]1

$$$$
