
     RDKit          3D

 21 23  0  0  0  0  0  0  0  0999 V2000
   -5.7125   -1.7202    1.1667 C   0  0  0  0  0  0  0  0  0  0  0  0
   -4.7583   -0.6864    0.5505 C   0  0  0  0  0  0  0  0  0  0  0  0
   -4.2734   -0.9340   -0.7578 C   0  0  0  0  0  0  0  0  0  0  0  0
   -5.4970    0.7203    0.7892 C   0  0  2  0  0  0  0  0  0  0  0  0
   -4.6263    1.5800   -0.3186 C   0  0  0  0  0  0  0  0  0  0  0  0
   -3.2338    1.2466   -0.1468 C   0  0  0  0  0  0  0  0  0  0  0  0
   -2.6533    0.4516    0.6587 C   0  0  0  0  0  0  0  0  0  0  0  0
   -1.2665    0.1275    0.8209 C   0  0  0  0  0  0  0  0  0  0  0  0
   -0.2959    0.5937    0.1591 N   0  0  0  0  0  0  0  0  0  0  0  0
    1.0502    0.2330    0.3681 N   0  0  0  0  0  0  0  0  0  0  0  0
    1.9969    0.3548   -0.6824 C   0  0  0  0  0  0  0  0  0  0  0  0
    1.6298    0.7820   -1.7885 O   0  0  0  0  0  0  0  0  0  0  0  0
    3.3884   -0.0260   -0.4409 C   0  0  0  0  0  0  0  0  0  0  0  0
    3.8116   -0.5021    0.7819 C   0  0  0  0  0  0  0  0  0  0  0  0
    5.1254   -0.8653    1.0215 C   0  0  0  0  0  0  0  0  0  0  0  0
    6.0707   -0.7591    0.0215 C   0  0  0  0  0  0  0  0  0  0  0  0
    7.4015   -1.1125    0.2177 O   0  0  0  0  0  0  0  0  0  0  0  0
    5.6587   -0.2843   -1.2053 C   0  0  0  0  0  0  0  0  0  0  0  0
    4.3352    0.0788   -1.4380 C   0  0  0  0  0  0  0  0  0  0  0  0
   -3.6548   -0.3231    1.6700 C   0  0  1  0  0  0  0  0  0  0  0  0
   -4.4965    1.0446    2.0171 C   0  0  0  0  0  0  0  0  0  0  0  0
  1  2  1  0
  2  3  1  0
  2  4  1  0
  4  5  1  6
  5  6  1  0
  6  7  2  0
  7  8  1  0
  8  9  2  0
  9 10  1  0
 10 11  1  0
 11 12  2  0
 11 13  1  0
 13 14  2  0
 14 15  1  0
 15 16  2  0
 16 17  1  0
 16 18  1  0
 18 19  2  0
  7 20  1  0
 20 21  1  1
 20  2  1  0
 21  4  1  0
 19 13  1  0
M  END
>  <zinc_id>  (1) 
ZINC000003311200

>  <smiles>  (1) 
CC1(C)[C@@H]2CC=C(/C=N/NC(=O)c3ccc(O)cc3)[C@H]1C2

$$$$
