
     RDKit          3D

 19 20  0  0  0  0  0  0  0  0999 V2000
   -2.7368    2.7324   -0.9613 C   0  0  0  0  0  0  0  0  0  0  0  0
   -1.8527    2.6782    0.3776 C   0  0  0  0  0  0  0  0  0  0  0  0
   -0.5977    3.5469   -0.0814 C   0  0  0  0  0  0  0  0  0  0  0  0
   -1.3149    1.2640    0.2459 C   0  0  0  0  0  0  0  0  0  0  0  0
   -0.1256    0.9895   -0.3694 C   0  0  0  0  0  0  0  0  0  0  0  0
    0.2933   -0.3626   -0.6277 C   0  0  0  0  0  0  0  0  0  0  0  0
    1.5566   -0.5898   -1.1310 N   0  0  0  0  0  0  0  0  0  0  0  0
    2.8524   -0.3240   -0.5352 C   0  0  0  0  0  0  0  0  0  0  0  0
    3.2019    0.0995    0.6794 N   0  0  0  0  0  0  0  0  0  0  0  0
    4.4793    0.2498    0.9490 C   0  0  0  0  0  0  0  0  0  0  0  0
    5.3957   -0.0231   -0.0096 C   0  0  0  0  0  0  0  0  0  0  0  0
    4.4035   -0.4993   -1.2934 S   0  0  0  0  0  0  0  0  0  0  0  0
   -0.5892   -1.2953   -0.2139 C   0  0  0  0  0  0  0  0  0  0  0  0
   -1.7383   -1.0791    0.3865 C   0  0  0  0  0  0  0  0  0  0  0  0
   -2.7669   -2.0655    0.8498 C   0  0  0  0  0  0  0  0  0  0  0  0
   -3.2333   -3.0075   -0.2841 C   0  0  0  0  0  0  0  0  0  0  0  0
   -1.7936   -3.1217    1.6110 C   0  0  0  0  0  0  0  0  0  0  0  0
   -2.1231    0.2550    0.6375 C   0  0  0  0  0  0  0  0  0  0  0  0
   -3.3105    0.5526    1.2688 O   0  0  0  0  0  0  0  0  0  0  0  0
  1  2  1  0
  2  3  1  0
  2  4  1  0
  4  5  2  0
  5  6  1  0
  6  7  1  0
  7  8  1  0
  8  9  2  0
  9 10  1  0
 10 11  2  0
 11 12  1  0
  6 13  2  0
 13 14  1  0
 14 15  1  0
 15 16  1  0
 15 17  1  0
 14 18  2  0
 18 19  1  0
 18  4  1  0
 12  8  1  0
M  END
>  <zinc_id>  (1) 
ZINC000000090665

>  <smiles>  (1) 
CC(C)c1cc(Nc2nccs2)cc(C(C)C)c1O

$$$$
