
     RDKit          3D

 22 25  0  0  0  0  0  0  0  0999 V2000
   -0.1484    1.4559    0.4829 O   0  0  0  0  0  0  0  0  0  0  0  0
    0.4454    0.3968    0.1772 C   0  0  0  0  0  0  0  0  0  0  0  0
   -0.3175   -0.7461   -0.1506 N   0  0  0  0  0  0  0  0  0  0  0  0
   -1.7199   -0.8023   -0.1647 C   0  0  0  0  0  0  0  0  0  0  0  0
   -2.2979   -2.0172   -0.5132 C   0  0  0  0  0  0  0  0  0  0  0  0
   -3.6488   -2.2133   -0.5676 C   0  0  0  0  0  0  0  0  0  0  0  0
   -4.4599   -1.1352   -0.2564 C   0  0  0  0  0  0  0  0  0  0  0  0
   -3.9271    0.1046    0.0994 C   0  0  0  0  0  0  0  0  0  0  0  0
   -4.7710    1.1956    0.4144 N   0  0  0  0  0  4  0  0  0  0  0  0
   -4.2565    2.2814    0.7260 O   0  0  0  0  0  0  0  0  0  0  0  0
   -6.1285    1.0203    0.3660 O   0  0  0  0  0  1  0  0  0  0  0  0
   -2.5639    0.2317    0.1340 C   0  0  0  0  0  0  0  0  0  0  0  0
    1.9205    0.2740    0.1395 C   0  0  0  0  0  0  0  0  0  0  0  0
    2.6077    1.5659    0.5100 C   0  0  0  0  0  0  0  0  0  0  0  0
    4.0963    1.3229    0.4613 C   0  0  0  0  0  0  0  0  0  0  0  0
    4.4784    0.1941    1.4081 C   0  0  0  0  0  0  0  0  0  0  0  0
    3.7562   -1.0825    1.0334 C   0  0  0  0  0  0  0  0  0  0  0  0
    4.1308   -1.5270   -0.3823 C   0  0  0  0  0  0  0  0  0  0  0  0
    3.7724   -0.3974   -1.3268 C   0  0  0  0  0  0  0  0  0  0  0  0
    4.4546    0.8921   -0.9347 C   0  0  0  0  0  0  0  0  0  0  0  0
    2.2938   -0.1758   -1.2651 C   0  0  0  0  0  0  0  0  0  0  0  0
    2.2833   -0.8387    1.1267 C   0  0  0  0  0  0  0  0  0  0  0  0
  1  2  2  0
  2  3  1  0
  3  4  1  0
  4  5  2  0
  5  6  1  0
  6  7  2  0
  7  8  1  0
  8  9  1  0
  9 10  2  0
  9 11  1  0
  8 12  2  0
  2 13  1  0
 13 14  1  0
 14 15  1  0
 15 16  1  0
 16 17  1  0
 17 18  1  0
 18 19  1  0
 19 20  1  0
 19 21  1  0
 17 22  1  0
 12  4  1  0
 21 13  1  0
 22 13  1  0
 20 15  1  0
M  CHG  2   9   1  11  -1
M  END
>  <zinc_id>  (1) 
ZINC000003995276

>  <smiles>  (1) 
O=C(Nc1cccc([N+](=O)[O-])c1)C12CC3CC(CC(C3)C1)C2

$$$$
