
     RDKit          3D

 21 22  0  0  0  0  0  0  0  0999 V2000
    5.3228    1.0801    1.4422 C   0  0  0  0  0  0  0  0  0  0  0  0
    4.3240    0.2926    0.6118 C   0  0  0  0  0  0  0  0  0  0  0  0
    4.7416   -0.7843   -0.1609 C   0  0  0  0  0  0  0  0  0  0  0  0
    3.8452   -1.5124   -0.9256 C   0  0  0  0  0  0  0  0  0  0  0  0
    2.5206   -1.1629   -0.9183 C   0  0  0  0  0  0  0  0  0  0  0  0
    2.0939   -0.0799   -0.1433 C   0  0  0  0  0  0  0  0  0  0  0  0
    0.7129    0.2764   -0.1151 N   0  0  0  0  0  0  0  0  0  0  0  0
   -0.2727   -0.2336   -1.0167 C   0  0  0  0  0  0  0  0  0  0  0  0
    0.1204   -1.0549   -1.8985 O   0  0  0  0  0  0  0  0  0  0  0  0
   -1.6704    0.1623   -0.9462 C   0  0  0  0  0  0  0  0  0  0  0  0
   -2.2471    1.0083   -1.9184 C   0  0  0  0  0  0  0  0  0  0  0  0
   -3.5427    1.4351   -1.8624 C   0  0  0  0  0  0  0  0  0  0  0  0
   -4.3394    1.0181   -0.7976 C   0  0  0  0  0  0  0  0  0  0  0  0
   -5.6112    1.4474   -0.7701 F   0  0  0  0  0  0  0  0  0  0  0  0
   -3.7793    0.1834    0.1657 C   0  0  0  0  0  0  0  0  0  0  0  0
   -2.4806   -0.2493    0.1155 C   0  0  0  0  0  0  0  0  0  0  0  0
   -1.9042   -1.1527    1.0860 N   0  0  0  0  0  4  0  0  0  0  0  0
   -1.0159   -1.9462    0.7283 O   0  0  0  0  0  0  0  0  0  0  0  0
   -2.3340   -1.1358    2.3793 O   0  0  0  0  0  1  0  0  0  0  0  0
    2.9916    0.6133    0.5936 C   0  0  0  0  0  0  0  0  0  0  0  0
    2.5247    1.7950    1.4127 C   0  0  0  0  0  0  0  0  0  0  0  0
  1  2  1  0
  2  3  2  0
  3  4  1  0
  4  5  2  0
  5  6  1  0
  6  7  1  0
  7  8  1  0
  8  9  2  0
  8 10  1  0
 10 11  2  0
 11 12  1  0
 12 13  2  0
 13 14  1  0
 13 15  1  0
 15 16  2  0
 16 17  1  0
 17 18  2  0
 17 19  1  0
  6 20  2  0
 20 21  1  0
 20  2  1  0
 16 10  1  0
M  CHG  2  17   1  19  -1
M  END
>  <zinc_id>  (1) 
ZINC000000082478

>  <smiles>  (1) 
Cc1cccc(NC(=O)c2ccc(F)cc2[N+](=O)[O-])c1C

$$$$
