
     RDKit          3D

 22 24  0  0  0  0  0  0  0  0999 V2000
    1.9904   -4.0162    0.1955 C   0  0  0  0  0  0  0  0  0  0  0  0
    2.2287   -2.5603    0.1753 C   0  0  0  0  0  0  0  0  0  0  0  0
    3.4847   -1.9851    0.2287 C   0  0  0  0  0  0  0  0  0  0  0  0
    3.6249   -0.6123    0.2051 C   0  0  0  0  0  0  0  0  0  0  0  0
    4.9571    0.0427    0.2607 C   0  0  0  0  0  0  0  0  0  0  0  0
    2.5071    0.1912    0.1281 C   0  0  0  0  0  0  0  0  0  0  0  0
    2.6331    1.6633    0.1015 C   0  0  0  0  0  0  0  0  0  0  0  0
    3.9025    2.2980    0.1543 N   0  0  0  0  0  0  0  0  0  0  0  0
    1.6187    2.3946    0.0315 O   0  0  0  0  0  0  0  0  0  0  0  0
    1.2793   -0.4118    0.0768 C   0  0  0  0  0  0  0  0  0  0  0  0
    0.1319    0.3773   -0.0015 N   0  0  0  0  0  0  0  0  0  0  0  0
   -1.1948   -0.1174   -0.0604 C   0  0  0  0  0  0  0  0  0  0  0  0
   -1.3776   -1.4809   -0.0393 C   0  0  0  0  0  0  0  0  0  0  0  0
   -2.6448   -2.0291   -0.0938 C   0  0  0  0  0  0  0  0  0  0  0  0
   -3.7339   -1.1987   -0.1700 C   0  0  0  0  0  0  0  0  0  0  0  0
   -3.6021    0.1886   -0.1944 C   0  0  0  0  0  0  0  0  0  0  0  0
   -4.7024    1.0157   -0.2712 C   0  0  0  0  0  0  0  0  0  0  0  0
   -4.5224    2.3750   -0.2923 C   0  0  0  0  0  0  0  0  0  0  0  0
   -3.2507    2.8889   -0.2368 C   0  0  0  0  0  0  0  0  0  0  0  0
   -2.1691    2.0425   -0.1606 C   0  0  0  0  0  0  0  0  0  0  0  0
   -2.3103    0.6798   -0.1373 C   0  0  0  0  0  0  0  0  0  0  0  0
    1.1496   -1.7459    0.1000 N   0  0  0  0  0  0  0  0  0  0  0  0
  1  2  1  0
  2  3  2  0
  3  4  1  0
  4  5  1  0
  4  6  2  0
  6  7  1  0
  7  8  1  0
  7  9  2  0
  6 10  1  0
 10 11  1  0
 11 12  1  0
 12 13  2  0
 13 14  1  0
 14 15  2  0
 15 16  1  0
 16 17  2  0
 17 18  1  0
 18 19  2  0
 19 20  1  0
 20 21  2  0
 10 22  2  0
 22  2  1  0
 21 12  1  0
 21 16  1  0
M  END
>  <zinc_id>  (1) 
ZINC000000186075

>  <smiles>  (1) 
Cc1cc(C)c(C(N)=O)c(Nc2cccc3ccccc23)n1

$$$$
