
     RDKit          3D

 20 22  0  0  0  0  0  0  0  0999 V2000
    5.5056   -2.7035    0.8998 C   0  0  0  0  0  0  0  0  0  0  0  0
    5.9800   -1.3263    0.5096 C   0  0  0  0  0  0  0  0  0  0  0  0
    5.5138   -0.2693    1.4933 C   0  0  0  0  0  0  0  0  0  0  0  0
    4.0041   -0.2403    1.5528 C   0  0  0  0  0  0  0  0  0  0  0  0
    3.5214    0.0566    0.2853 O   0  0  0  0  0  0  0  0  0  0  0  0
    2.1584    0.1643   -0.0257 C   0  0  0  0  0  0  0  0  0  0  0  0
    1.7617    0.4624   -1.3091 C   0  0  0  0  0  0  0  0  0  0  0  0
    0.4537    0.5889   -1.7111 C   0  0  0  0  0  0  0  0  0  0  0  0
   -0.5529    0.4015   -0.7466 C   0  0  0  0  0  0  0  0  0  0  0  0
   -0.1812    0.1037    0.5386 C   0  0  0  0  0  0  0  0  0  0  0  0
    1.1646   -0.0168    0.9089 C   0  0  0  0  0  0  0  0  0  0  0  0
   -1.3978   -0.0386    1.3275 C   0  0  0  0  0  0  0  0  0  0  0  0
   -1.4910   -0.3137    2.5695 O   0  0  0  0  0  0  0  0  0  0  0  0
   -2.5211    0.1927    0.4336 C   0  0  0  0  0  0  0  0  0  0  0  0
   -3.9112    0.1847    0.6436 C   0  0  0  0  0  0  0  0  0  0  0  0
   -4.7722    0.4424   -0.4011 C   0  0  0  0  0  0  0  0  0  0  0  0
   -6.1645    0.4404   -0.2175 O   0  0  0  0  0  0  0  0  0  0  0  0
   -4.2200    0.7033   -1.6372 C   0  0  0  0  0  0  0  0  0  0  0  0
   -2.8591    0.7133   -1.8521 C   0  0  0  0  0  0  0  0  0  0  0  0
   -1.9923    0.4540   -0.8012 C   0  0  0  0  0  0  0  0  0  0  0  0
  1  2  1  0
  2  3  1  0
  3  4  1  0
  4  5  1  0
  5  6  1  0
  6  7  2  0
  7  8  1  0
  8  9  2  0
  9 10  1  0
 10 11  2  0
 10 12  1  0
 12 13  2  0
 12 14  1  0
 14 15  2  0
 15 16  1  0
 16 17  1  0
 16 18  2  0
 18 19  1  0
 19 20  2  0
 11  6  1  0
 20 14  1  0
 20  9  1  0
M  END
>  <zinc_id>  (1) 
ZINC000002865841

>  <smiles>  (1) 
CCCCOc1ccc2c(c1)C(=O)c1cc(O)ccc1-2

$$$$
