
     RDKit          3D

 20 21  0  0  0  0  0  0  0  0999 V2000
    1.7808   -1.4974   -2.8834 C   0  0  0  0  0  0  0  0  0  0  0  0
    2.1542   -0.7257   -1.6960 C   0  0  0  0  0  0  0  0  0  0  0  0
    3.4943   -0.3826   -1.5360 C   0  0  0  0  0  0  0  0  0  0  0  0
    3.8815    0.3386   -0.4383 C   0  0  0  0  0  0  0  0  0  0  0  0
    2.9480    0.7217    0.5017 C   0  0  0  0  0  0  0  0  0  0  0  0
    3.3578    1.4663    1.6317 N   0  0  0  0  0  4  0  0  0  0  0  0
    2.5701    1.8430    2.5152 O   0  0  0  0  0  0  0  0  0  0  0  0
    4.6747    1.7968    1.7779 O   0  0  0  0  0  1  0  0  0  0  0  0
    1.6045    0.3636    0.3173 C   0  0  0  0  0  0  0  0  0  0  0  0
    1.1986   -0.3603   -0.7791 C   0  0  0  0  0  0  0  0  0  0  0  0
   -0.1762   -0.6887   -0.9034 N   0  0  0  0  0  0  0  0  0  0  0  0
   -1.1639   -0.3234    0.0237 C   0  0  0  0  0  0  0  0  0  0  0  0
   -0.8046    0.3378    1.0289 O   0  0  0  0  0  0  0  0  0  0  0  0
   -2.5630   -0.7372   -0.2374 C   0  0  0  0  0  0  0  0  0  0  0  0
   -3.6492   -0.3661    0.7313 C   0  0  0  0  0  0  0  0  0  0  0  0
   -4.6202   -1.4916    1.0227 C   0  0  0  0  0  0  0  0  0  0  0  0
   -3.2010    0.4682    1.9134 C   0  0  0  0  0  0  0  0  0  0  0  0
   -3.5995    0.2348   -0.6301 C   0  0  0  0  0  0  0  0  0  0  0  0
   -3.3118    1.7192   -0.6586 C   0  0  0  0  0  0  0  0  0  0  0  0
   -4.5750   -0.2059   -1.7016 C   0  0  0  0  0  0  0  0  0  0  0  0
  1  2  1  0
  2  3  2  0
  3  4  1  0
  4  5  2  0
  5  6  1  0
  6  7  2  0
  6  8  1  0
  5  9  1  0
  9 10  2  0
 10 11  1  0
 11 12  1  0
 12 13  2  0
 12 14  1  0
 14 15  1  0
 15 16  1  0
 15 17  1  0
 15 18  1  0
 18 19  1  0
 18 20  1  0
 10  2  1  0
 18 14  1  0
M  CHG  2   6   1   8  -1
M  END
>  <zinc_id>  (1) 
ZINC000000130651

>  <smiles>  (1) 
Cc1ccc([N+](=O)[O-])cc1NC(=O)C1C(C)(C)C1(C)C

$$$$
