
     RDKit          3D

 19 21  0  0  0  0  0  0  0  0999 V2000
    1.3186    2.6789   -0.5222 O   0  0  0  0  0  0  0  0  0  0  0  0
    1.3834    1.4260   -0.4960 C   0  0  0  0  0  0  0  0  0  0  0  0
    0.1846    0.6744   -0.5895 N   0  0  0  0  0  0  0  0  0  0  0  0
   -1.0887    1.2258   -0.7143 N   0  0  0  0  0  0  0  0  0  0  0  0
   -2.0997    0.3350   -1.2254 C   0  0  0  0  0  0  0  0  0  0  0  0
   -3.1125    0.1196   -0.4201 C   0  0  0  0  0  0  0  0  0  0  0  0
   -3.4739    0.5320    0.8144 C   0  0  0  0  0  0  0  0  0  0  0  0
   -4.7522   -0.2922    1.2911 C   0  0  2  0  0  0  0  0  0  0  0  0
   -4.1878   -1.7836    1.1030 C   0  0  0  0  0  0  0  0  0  0  0  0
   -3.9494   -2.0768   -0.0283 C   0  0  0  0  0  0  0  0  0  0  0  0
   -4.2460   -0.9049   -1.0517 C   0  0  1  0  0  0  0  0  0  0  0  0
   -5.4559   -0.2441   -0.1957 C   0  0  0  0  0  0  0  0  0  0  0  0
    2.6339    0.7067   -0.3743 C   0  0  0  0  0  0  0  0  0  0  0  0
    3.8316    1.3761   -0.2013 C   0  0  0  0  0  0  0  0  0  0  0  0
    5.0298    0.6731   -0.0851 C   0  0  0  0  0  0  0  0  0  0  0  0
    5.0120   -0.7005   -0.1404 C   0  0  0  0  0  0  0  0  0  0  0  0
    6.4616   -1.6848    0.0081 Cl  0  0  0  0  0  0  0  0  0  0  0  0
    3.8239   -1.3935   -0.3123 C   0  0  0  0  0  0  0  0  0  0  0  0
    2.6867   -0.6671   -0.4204 C   0  0  0  0  0  0  0  0  0  0  0  0
  1  2  2  0
  2  3  1  0
  3  4  1  0
  4  5  1  0
  5  6  2  0
  6  7  1  0
  8  7  1  6
  8  9  1  0
  9 10  2  0
 11 10  1  1
 11 12  1  0
  2 13  1  0
 13 14  2  0
 14 15  1  0
 15 16  2  0
 16 17  1  0
 16 18  1  0
 18 19  2  0
 11  6  1  0
 19 13  1  0
 12  8  1  0
M  END
>  <zinc_id>  (1) 
ZINC000003084404

>  <smiles>  (1) 
O=C(NN/C=C1\C[C@@H]2C=C[C@H]1C2)c1ccc(Cl)cc1

$$$$
