
     RDKit          3D

 18 19  0  0  0  0  0  0  0  0999 V2000
    2.9683    2.3370    1.3507 C   0  0  0  0  0  0  0  0  0  0  0  0
    3.3861    1.7656    0.0225 C   0  0  0  0  0  0  0  0  0  0  0  0
    4.7703    1.1757    0.1305 C   0  0  0  0  0  0  0  0  0  0  0  0
    3.3766    2.8817   -0.9857 C   0  0  0  0  0  0  0  0  0  0  0  0
    2.4166    0.7121   -0.4234 C   0  0  0  0  0  0  0  0  0  0  0  0
    2.7352   -0.6112   -0.3479 C   0  0  0  0  0  0  0  0  0  0  0  0
    1.8786   -1.6287   -0.7545 C   0  0  0  0  0  0  0  0  0  0  0  0
    0.6213   -1.2820   -1.2733 C   0  0  0  0  0  0  0  0  0  0  0  0
   -0.2950   -2.3739   -1.7056 C   0  0  0  0  0  0  0  0  0  0  0  0
   -1.3933   -2.8687   -0.3597 S   0  0  0  0  0  0  0  0  0  0  0  0
   -2.5569   -1.5226   -0.0303 C   0  0  0  0  0  0  0  0  0  0  0  0
   -3.7567   -1.3645   -0.5892 N   0  0  0  0  0  0  0  0  0  0  0  0
   -4.4681   -0.3697   -0.2737 N   0  0  0  0  0  0  0  0  0  0  0  0
   -4.0149    0.5155    0.6128 C   0  0  0  0  0  0  0  0  0  0  0  0
   -4.6643    1.7104    1.0947 N   0  0  0  0  0  0  0  0  0  0  0  0
   -2.4772   -0.1646    0.9873 S   0  0  0  0  0  0  0  0  0  0  0  0
    0.3051    0.0375   -1.3511 C   0  0  0  0  0  0  0  0  0  0  0  0
    1.1684    1.0506   -0.9434 C   0  0  0  0  0  0  0  0  0  0  0  0
  1  2  1  0
  2  3  1  0
  2  4  1  0
  2  5  1  0
  5  6  2  0
  6  7  1  0
  7  8  2  0
  8  9  1  0
  9 10  1  0
 10 11  1  0
 11 12  2  0
 12 13  1  0
 13 14  2  0
 14 15  1  0
 14 16  1  0
  8 17  1  0
 17 18  2  0
 18  5  1  0
 16 11  1  0
M  END
>  <zinc_id>  (1) 
ZINC000000054232

>  <smiles>  (1) 
CC(C)(C)c1ccc(CSc2nnc(N)s2)cc1

$$$$
