
     RDKit          3D

 20 22  0  0  0  0  0  0  0  0999 V2000
   -2.7334    2.0272   -1.8024 C   0  0  0  0  0  0  0  0  0  0  0  0
   -2.9655    0.8396   -1.2520 C   0  0  0  0  0  0  0  0  0  0  0  0
   -2.0630   -0.2474   -1.4773 N   0  0  0  0  0  0  0  0  0  0  0  0
   -0.6828   -0.1080   -1.2252 N   0  0  0  0  0  0  0  0  0  0  0  0
   -0.0608   -0.9654   -0.3164 C   0  0  0  0  0  0  0  0  0  0  0  0
   -0.7224   -1.8554    0.2720 O   0  0  0  0  0  0  0  0  0  0  0  0
    1.3898   -0.8662   -0.0076 C   0  0  0  0  0  0  0  0  0  0  0  0
    2.2893    0.0156   -0.5172 C   0  0  0  0  0  0  0  0  0  0  0  0
    3.5571   -0.0602   -0.1031 C   0  0  0  0  0  0  0  0  0  0  0  0
    3.8503   -1.0378    0.8171 C   0  0  0  0  0  0  0  0  0  0  0  0
    2.3429   -1.7970    1.0542 S   0  0  0  0  0  0  0  0  0  0  0  0
    5.2708   -1.1388    1.2953 C   0  0  0  0  0  0  0  0  0  0  0  0
    5.7845    0.2183    1.7251 C   0  0  0  0  0  0  0  0  0  0  0  0
    5.3053    1.3184    0.8169 C   0  0  0  0  0  0  0  0  0  0  0  0
    4.7657    0.7840   -0.4931 C   0  0  0  0  0  0  0  0  0  0  0  0
   -4.1471    0.6487   -0.4149 C   0  0  0  0  0  0  0  0  0  0  0  0
   -4.4847   -0.5300    0.2051 C   0  0  0  0  0  0  0  0  0  0  0  0
   -5.6522   -0.2936    0.8880 C   0  0  0  0  0  0  0  0  0  0  0  0
   -5.9842    1.0255    0.6573 C   0  0  0  0  0  0  0  0  0  0  0  0
   -5.0596    1.5428   -0.1219 O   0  0  0  0  0  0  0  0  0  0  0  0
  1  2  2  0
  2  3  1  0
  3  4  1  0
  4  5  1  0
  5  6  2  0
  5  7  1  0
  7  8  2  0
  8  9  1  0
  9 10  2  0
 10 11  1  0
 10 12  1  0
 12 13  1  0
 13 14  1  0
 14 15  1  0
  2 16  1  0
 16 17  2  0
 17 18  1  0
 18 19  2  0
 19 20  1  0
 11  7  1  0
 20 16  1  0
 15  9  1  0
M  END
>  <zinc_id>  (1) 
ZINC000003546810

>  <smiles>  (1) 
C=C(NNC(=O)c1cc2c(s1)CCCC2)c1ccco1

$$$$
