
     RDKit          3D

 19 20  0  0  0  0  0  0  0  0999 V2000
   -0.4001    3.4587    1.4942 C   0  0  0  0  0  0  0  0  0  0  0  0
   -0.9773    2.1574    1.0371 C   0  0  0  0  0  0  0  0  0  0  0  0
   -2.3474    1.9482    1.0838 C   0  0  0  0  0  0  0  0  0  0  0  0
   -2.8817    0.7501    0.6632 C   0  0  0  0  0  0  0  0  0  0  0  0
   -4.3483    0.5003    0.7030 C   0  0  0  0  0  0  0  0  0  0  0  0
   -2.0289   -0.2139    0.2041 C   0  0  0  0  0  0  0  0  0  0  0  0
   -2.5928   -1.5015   -0.2489 C   0  0  0  0  0  0  0  0  0  0  0  0
   -3.9788   -1.7432   -0.2135 N   0  0  0  0  0  0  0  0  0  0  0  0
   -1.8263   -2.4017   -0.6748 O   0  0  0  0  0  0  0  0  0  0  0  0
   -0.6728   -0.0140    0.1550 C   0  0  0  0  0  0  0  0  0  0  0  0
    0.1419   -1.0519   -0.3295 N   0  0  0  0  0  0  0  0  0  0  0  0
    1.5576   -0.9389   -0.4183 C   0  0  0  0  0  0  0  0  0  0  0  0
    2.2903   -2.0021   -0.9051 C   0  0  0  0  0  0  0  0  0  0  0  0
    3.6673   -1.8646   -0.9806 C   0  0  0  0  0  0  0  0  0  0  0  0
    4.3175   -0.7211   -0.5924 C   0  0  0  0  0  0  0  0  0  0  0  0
    3.5772    0.3282   -0.1104 C   0  0  0  0  0  0  0  0  0  0  0  0
    4.4748    1.9426    0.4396 Br  0  0  0  0  0  0  0  0  0  0  0  0
    2.2207    0.1999   -0.0332 C   0  0  0  0  0  0  0  0  0  0  0  0
   -0.1927    1.1674    0.5742 N   0  0  0  0  0  0  0  0  0  0  0  0
  1  2  1  0
  2  3  2  0
  3  4  1  0
  4  5  1  0
  4  6  2  0
  6  7  1  0
  7  8  1  0
  7  9  2  0
  6 10  1  0
 10 11  1  0
 11 12  1  0
 12 13  2  0
 13 14  1  0
 14 15  2  0
 15 16  1  0
 16 17  1  0
 16 18  2  0
 10 19  2  0
 19  2  1  0
 18 12  1  0
M  END
>  <zinc_id>  (1) 
ZINC000000317099

>  <smiles>  (1) 
Cc1cc(C)c(C(N)=O)c(Nc2cccc(Br)c2)n1

$$$$
