
     RDKit          3D

 21 23  0  0  0  0  0  0  0  0999 V2000
   -4.6076    2.3530    1.3932 C   0  0  0  0  0  0  0  0  0  0  0  0
   -3.5506    1.4865    0.8033 C   0  0  0  0  0  0  0  0  0  0  0  0
   -2.9060    1.8887   -0.3349 C   0  0  0  0  0  0  0  0  0  0  0  0
   -1.9006    1.1178   -0.9359 C   0  0  0  0  0  0  0  0  0  0  0  0
   -1.3425    1.6619   -2.2014 C   0  0  0  0  0  0  0  0  0  0  0  0
   -1.5277   -0.0867   -0.3846 C   0  0  0  0  0  0  0  0  0  0  0  0
   -2.2067   -0.4787    0.7743 C   0  0  0  0  0  0  0  0  0  0  0  0
   -3.1930    0.2873    1.3600 C   0  0  0  0  0  0  0  0  0  0  0  0
   -1.8525   -1.8103    1.1357 N   0  0  0  0  0  0  0  0  0  0  0  0
   -0.9403   -2.2662    0.1741 C   0  0  0  0  0  0  0  0  0  0  0  0
   -0.5570   -3.4538    0.0273 O   0  0  0  0  0  0  0  0  0  0  0  0
   -0.4821   -1.0755   -0.6773 C   0  0  1  0  0  0  0  0  0  0  0  0
   -0.5779   -1.5512   -2.0035 O   0  0  0  0  0  0  0  0  0  0  0  0
    0.8805   -0.8425   -0.2550 C   0  0  0  0  0  0  0  0  0  0  0  0
    1.7564    0.1982   -0.6093 C   0  0  0  0  0  0  0  0  0  0  0  0
    1.5145    1.1051   -1.4265 O   0  0  0  0  0  0  0  0  0  0  0  0
    3.1038    0.2460    0.0359 C   0  0  0  0  0  0  0  0  0  0  0  0
    3.6512   -0.5944    0.9556 C   0  0  0  0  0  0  0  0  0  0  0  0
    4.8837   -0.3324    1.3799 C   0  0  0  0  0  0  0  0  0  0  0  0
    5.5184    0.7615    0.8649 C   0  0  0  0  0  0  0  0  0  0  0  0
    4.3360    1.3857   -0.2111 S   0  0  0  0  0  0  0  0  0  0  0  0
  1  2  1  0
  2  3  2  0
  3  4  1  0
  4  5  1  0
  4  6  2  0
  6  7  1  0
  7  8  2  0
  7  9  1  0
  9 10  1  0
 10 11  2  0
 10 12  1  0
 12 13  1  6
 12 14  1  0
 14 15  1  0
 15 16  2  0
 15 17  1  0
 17 18  2  0
 18 19  1  0
 19 20  2  0
 20 21  1  0
  8  2  1  0
 21 17  1  0
 12  6  1  0
M  END
>  <zinc_id>  (1) 
ZINC000000565335

>  <smiles>  (1) 
Cc1cc(C)c2c(c1)NC(=O)[C@]2(O)CC(=O)c1cccs1

$$$$
