
     RDKit          3D

 22 25  0  0  0  0  0  0  0  0999 V2000
   -1.1046   -4.4495   -0.0874 C   0  0  0  0  0  0  0  0  0  0  0  0
   -1.5498   -3.0350   -0.3317 C   0  0  0  0  0  0  0  0  0  0  0  0
   -2.5965   -2.7469   -1.1787 C   0  0  0  0  0  0  0  0  0  0  0  0
   -3.0313   -1.4694   -1.4266 C   0  0  0  0  0  0  0  0  0  0  0  0
   -2.4000   -0.3975   -0.8040 C   0  0  0  0  0  0  0  0  0  0  0  0
   -2.7884    0.8682   -1.0144 N   0  0  0  0  0  0  0  0  0  0  0  0
   -2.2019    1.9270   -0.4303 C   0  0  0  0  0  0  0  0  0  0  0  0
   -1.1427    1.6919    0.4318 C   0  0  0  0  0  0  0  0  0  0  0  0
   -0.7301    0.4014    0.6601 C   0  0  0  0  0  0  0  0  0  0  0  0
    0.3480    0.0934    1.5314 N   0  0  0  0  0  0  0  0  0  0  0  0
    1.6997    0.0102    1.0775 C   0  0  0  0  0  0  0  0  0  0  0  0
    2.0189    0.2289   -0.2469 C   0  0  0  0  0  0  0  0  0  0  0  0
    3.3229    0.1534   -0.7092 C   0  0  0  0  0  0  0  0  0  0  0  0
    4.3651   -0.1460    0.1421 C   0  0  0  0  0  0  0  0  0  0  0  0
    5.6808   -0.2287   -0.2913 O   0  0  0  0  0  0  0  0  0  0  0  0
    4.0483   -0.3649    1.4655 C   0  0  0  0  0  0  0  0  0  0  0  0
    2.7377   -0.2897    1.9336 C   0  0  0  0  0  0  0  0  0  0  0  0
   -1.3558   -0.6614    0.0430 C   0  0  0  0  0  0  0  0  0  0  0  0
   -0.9232   -1.9755    0.2858 C   0  0  0  0  0  0  0  0  0  0  0  0
   -0.6408    2.9823    0.9660 C   0  0  0  0  0  0  0  0  0  0  0  0
   -1.2795    4.0318    0.0858 C   0  0  0  0  0  0  0  0  0  0  0  0
   -2.4768    3.3761   -0.5295 C   0  0  0  0  0  0  0  0  0  0  0  0
  1  2  1  0
  2  3  2  0
  3  4  1  0
  4  5  2  0
  5  6  1  0
  6  7  2  0
  7  8  1  0
  8  9  2  0
  9 10  1  0
 10 11  1  0
 11 12  2  0
 12 13  1  0
 13 14  2  0
 14 15  1  0
 14 16  1  0
 16 17  2  0
  9 18  1  0
 18 19  2  0
  8 20  1  0
 20 21  1  0
 21 22  1  0
 19  2  1  0
 18  5  1  0
 22  7  1  0
 17 11  1  0
M  END
>  <zinc_id>  (1) 
ZINC000000110324

>  <smiles>  (1) 
Cc1ccc2nc3c(c(Nc4ccc(O)cc4)c2c1)CCC3

$$$$
