
     RDKit          3D

 19 21  0  0  0  0  0  0  0  0999 V2000
    0.8225   -1.4877   -1.5216 O   0  0  0  0  0  0  0  0  0  0  0  0
    0.2011   -0.8613   -0.6337 C   0  0  0  0  0  0  0  0  0  0  0  0
    0.8848    0.1177    0.1170 N   0  0  0  0  0  0  0  0  0  0  0  0
    2.2580    0.4427   -0.0750 C   0  0  0  0  0  0  0  0  0  0  0  0
    3.0387   -0.1834   -1.0239 C   0  0  0  0  0  0  0  0  0  0  0  0
    4.3635    0.1652   -1.1727 C   0  0  0  0  0  0  0  0  0  0  0  0
    4.9553    1.1461   -0.3847 C   0  0  0  0  0  0  0  0  0  0  0  0
    4.1809    1.7758    0.5655 C   0  0  0  0  0  0  0  0  0  0  0  0
    2.8364    1.4166    0.7111 C   0  0  0  0  0  0  0  0  0  0  0  0
    2.0470    2.0349    1.6552 O   0  0  0  0  0  0  0  0  0  0  0  0
   -1.2325   -1.1720   -0.4037 C   0  0  0  0  0  0  0  0  0  0  0  0
   -2.2063   -2.3147   -1.2124 S   0  0  0  0  0  0  0  0  0  0  0  0
   -3.6709   -2.0546   -0.3792 C   0  0  0  0  0  0  0  0  0  0  0  0
   -3.3519   -1.0738    0.5138 C   0  0  0  0  0  0  0  0  0  0  0  0
   -2.0802   -0.6194    0.4949 C   0  0  0  0  0  0  0  0  0  0  0  0
   -1.7765    0.4679    1.5041 C   0  0  0  0  0  0  0  0  0  0  0  0
   -2.7879    1.5706    1.2691 C   0  0  0  0  0  0  0  0  0  0  0  0
   -4.2100    1.0650    1.3316 C   0  0  0  0  0  0  0  0  0  0  0  0
   -4.2720   -0.4356    1.5288 C   0  0  0  0  0  0  0  0  0  0  0  0
  1  2  2  0
  2  3  1  0
  3  4  1  0
  4  5  2  0
  5  6  1  0
  6  7  2  0
  7  8  1  0
  8  9  2  0
  9 10  1  0
  2 11  1  0
 11 12  1  0
 12 13  1  0
 13 14  2  0
 14 15  1  0
 15 16  1  0
 16 17  1  0
 17 18  1  0
 18 19  1  0
  9  4  1  0
 15 11  2  0
 19 14  1  0
M  END
>  <zinc_id>  (1) 
ZINC000000091352

>  <smiles>  (1) 
O=C(Nc1ccccc1O)c1scc2c1CCCC2

$$$$
