
     RDKit          3D

 22 24  0  0  0  0  0  0  0  0999 V2000
   -0.0242    1.0204   -2.4025 C   0  0  0  0  0  0  0  0  0  0  0  0
   -1.0967    1.3577   -1.4392 C   0  0  0  0  0  0  0  0  0  0  0  0
   -1.5784    2.5071   -1.4797 O   0  0  0  0  0  0  0  0  0  0  0  0
   -1.5135    0.3191   -0.5101 C   0  0  0  0  0  0  0  0  0  0  0  0
   -2.4547    0.5564    0.3649 C   0  0  0  0  0  0  0  0  0  0  0  0
   -3.0449    1.9596    0.2959 C   0  0  0  0  0  0  0  0  0  0  0  0
   -2.8702   -0.3165    1.4076 N   0  0  0  0  0  0  0  0  0  0  0  0
   -2.1696   -1.5524    1.4972 C   0  0  0  0  0  0  0  0  0  0  0  0
   -2.5160   -2.3927    2.4268 O   0  0  0  0  0  0  0  0  0  0  0  0
   -1.1687   -1.8079    0.6121 N   0  0  0  0  0  0  0  0  0  0  0  0
   -0.9126   -1.1214   -0.6584 C   0  0  2  0  0  0  0  0  0  0  0  0
    0.6591   -0.7868   -0.6323 C   0  0  0  0  0  0  0  0  0  0  0  0
    1.4091   -1.4293   -1.5802 C   0  0  0  0  0  0  0  0  0  0  0  0
    0.9086   -2.3122   -2.5178 O   0  0  0  0  0  0  0  0  0  0  0  0
    2.7942   -1.1981   -1.6338 C   0  0  0  0  0  0  0  0  0  0  0  0
    3.3357   -0.3235   -0.7160 C   0  0  0  0  0  0  0  0  0  0  0  0
    2.5526    0.3033    0.2210 C   0  0  0  0  0  0  0  0  0  0  0  0
    3.0258    1.1939    1.1743 C   0  0  0  0  0  0  0  0  0  0  0  0
    2.2098    1.8052    2.1006 C   0  0  0  0  0  0  0  0  0  0  0  0
    0.8642    1.5264    2.0877 C   0  0  0  0  0  0  0  0  0  0  0  0
    0.3830    0.6466    1.1493 C   0  0  0  0  0  0  0  0  0  0  0  0
    1.2074    0.0450    0.2327 C   0  0  0  0  0  0  0  0  0  0  0  0
  1  2  1  0
  2  3  2  0
  2  4  1  0
  4  5  2  0
  5  6  1  0
  5  7  1  0
  7  8  1  0
  8  9  2  0
  8 10  1  0
 10 11  1  0
 11 12  1  1
 12 13  2  0
 13 14  1  0
 13 15  1  0
 15 16  2  0
 16 17  1  0
 17 18  2  0
 18 19  1  0
 19 20  2  0
 20 21  1  0
 21 22  2  0
 11  4  1  0
 22 12  1  0
 22 17  1  0
M  END
>  <zinc_id>  (1) 
ZINC000000043901

>  <smiles>  (1) 
CC(=O)C1=C(C)NC(=O)N[C@@H]1c1c(O)ccc2ccccc12

$$$$
