
     RDKit          3D

 20 22  0  0  0  0  0  0  0  0999 V2000
   -0.2773    1.7817    2.5488 O   0  0  0  0  0  0  0  0  0  0  0  0
    0.3559    1.2051    1.6152 C   0  0  0  0  0  0  0  0  0  0  0  0
    1.5860    0.5024    1.6956 N   0  0  0  0  0  0  0  0  0  0  0  0
    1.8255   -0.1145    0.4080 C   0  0  0  0  0  0  0  0  0  0  0  0
    1.6412   -1.6138    0.4891 C   0  0  0  0  0  0  0  0  0  0  0  0
    1.9906   -2.2498   -0.8191 C   0  0  0  0  0  0  0  0  0  0  0  0
    3.5133   -2.3893   -0.8839 C   0  0  0  0  0  0  0  0  0  0  0  0
    4.1279   -1.2907   -1.7196 C   0  0  0  0  0  0  0  0  0  0  0  0
    3.4446    0.0424   -1.4998 C   0  0  0  0  0  0  0  0  0  0  0  0
    3.2357    0.2619   -0.0070 C   0  0  0  0  0  0  0  0  0  0  0  0
    0.8157    0.4654   -0.5176 C   0  0  0  0  0  0  0  0  0  0  0  0
    0.8175    0.3247   -1.7531 O   0  0  0  0  0  0  0  0  0  0  0  0
   -0.1149    1.1856    0.2774 N   0  0  0  0  0  0  0  0  0  0  0  0
   -1.3400    1.7915   -0.2285 C   0  0  0  0  0  0  0  0  0  0  0  0
   -2.4737    0.8375   -0.1536 C   0  0  0  0  0  0  0  0  0  0  0  0
   -3.6997    1.2882   -0.6036 C   0  0  0  0  0  0  0  0  0  0  0  0
   -4.8239    0.4734   -0.5764 C   0  0  0  0  0  0  0  0  0  0  0  0
   -4.7331   -0.8156   -0.0933 C   0  0  0  0  0  0  0  0  0  0  0  0
   -3.5033   -1.2517    0.3523 C   0  0  0  0  0  0  0  0  0  0  0  0
   -2.3880   -0.4344    0.3221 C   0  0  0  0  0  0  0  0  0  0  0  0
  1  2  2  0
  2  3  1  0
  3  4  1  0
  4  5  1  0
  5  6  1  0
  6  7  1  0
  7  8  1  0
  8  9  1  0
  9 10  1  0
  4 11  1  0
 11 12  2  0
 11 13  1  0
 13 14  1  0
 14 15  1  0
 15 16  2  0
 16 17  1  0
 17 18  2  0
 18 19  1  0
 19 20  2  0
 13  2  1  0
 20 15  1  0
 10  4  1  0
M  END
>  <zinc_id>  (1) 
ZINC000003313643

>  <smiles>  (1) 
O=C1NC2(CCCCCC2)C(=O)N1Cc1ccccc1

$$$$
