
     RDKit          3D

 20 22  0  0  0  0  0  0  0  0999 V2000
   -3.5234    2.2947   -0.6561 C   0  0  0  0  0  0  0  0  0  0  0  0
   -2.9391    1.3479    0.3699 C   0  0  0  0  0  0  0  0  0  0  0  0
   -3.2102   -0.0880    0.0101 C   0  0  0  0  0  0  0  0  0  0  0  0
   -2.2203   -0.9438   -0.2002 C   0  0  0  0  0  0  0  0  0  0  0  0
   -0.7773   -0.6696   -0.1268 C   0  0  0  0  0  0  0  0  0  0  0  0
   -0.2822    0.5519   -0.5614 C   0  0  0  0  0  0  0  0  0  0  0  0
    1.0634    0.8092   -0.4987 C   0  0  0  0  0  0  0  0  0  0  0  0
    1.9922   -0.1129   -0.0086 C   0  0  0  0  0  0  0  0  0  0  0  0
    3.3795    0.2081    0.0287 N   0  0  0  0  0  0  0  0  0  0  0  0
    4.4314   -0.3777   -0.5510 C   0  0  0  0  0  0  0  0  0  0  0  0
    5.5425    0.3413   -0.1878 C   0  0  0  0  0  0  0  0  0  0  0  0
    5.1787    1.3596    0.6081 N   0  0  0  0  0  0  0  0  0  0  0  0
    3.8489    1.2551    0.7237 C   0  0  0  0  0  0  0  0  0  0  0  0
    3.0507    2.2180    1.5321 C   0  0  0  0  0  0  0  0  0  0  0  0
    1.4700   -1.3136    0.4147 C   0  0  0  0  0  0  0  0  0  0  0  0
    0.1211   -1.5872    0.3581 C   0  0  0  0  0  0  0  0  0  0  0  0
   -2.7930   -2.2613   -0.5294 C   0  0  0  0  0  0  0  0  0  0  0  0
   -4.2169   -2.0873   -0.5140 N   0  0  0  0  0  0  0  0  0  0  0  0
   -4.4852   -0.7449   -0.1709 C   0  0  0  0  0  0  0  0  0  0  0  0
   -5.6307   -0.1996   -0.0406 O   0  0  0  0  0  0  0  0  0  0  0  0
  1  2  1  0
  2  3  1  0
  3  4  2  0
  4  5  1  0
  5  6  2  0
  6  7  1  0
  7  8  2  0
  8  9  1  0
  9 10  1  0
 10 11  2  0
 11 12  1  0
 12 13  2  0
 13 14  1  0
  8 15  1  0
 15 16  2  0
  4 17  1  0
 17 18  1  0
 18 19  1  0
 19 20  2  0
 19  3  1  0
 16  5  1  0
 13  9  1  0
M  END
>  <zinc_id>  (1) 
ZINC000000003728

>  <smiles>  (1) 
CCC1=C(c2ccc(-n3ccnc3C)cc2)CNC1=O

$$$$
