
     RDKit          3D

 19 21  0  0  0  0  0  0  0  0999 V2000
    1.7155   -0.0393   -1.5222 C   0  0  0  0  0  0  0  0  0  0  0  0
    2.0345   -0.0970   -0.0374 C   0  0  0  0  0  0  0  0  0  0  0  0
    3.2914   -0.3698    0.3584 C   0  0  0  0  0  0  0  0  0  0  0  0
    3.5568   -0.4077    1.6712 C   0  0  0  0  0  0  0  0  0  0  0  0
    2.0529   -0.0626    2.3780 S   0  0  0  0  0  0  0  0  0  0  0  0
    1.1451    0.1155    0.9222 C   0  0  0  0  0  0  0  0  0  0  0  0
   -0.3863    0.4453    0.8947 C   0  0  1  0  0  0  0  0  0  0  0  0
   -0.3922    1.4909   -0.2354 C   0  0  0  0  0  0  0  0  0  0  0  0
    0.1846    2.7632    0.1819 C   0  0  0  0  0  0  0  0  0  0  0  0
    0.6380    3.7819    0.4954 N   0  0  0  0  0  0  0  0  0  0  0  0
   -0.8486    1.2859   -1.4182 C   0  0  0  0  0  0  0  0  0  0  0  0
   -0.7782    2.3706   -2.3372 N   0  0  0  0  0  0  0  0  0  0  0  0
   -1.3739    0.0441   -1.7447 O   0  0  0  0  0  0  0  0  0  0  0  0
   -1.4085   -0.9574   -0.8295 C   0  0  0  0  0  0  0  0  0  0  0  0
   -0.9798   -0.8271    0.3516 C   0  0  0  0  0  0  0  0  0  0  0  0
   -1.0579   -1.9882    1.2723 C   0  0  0  0  0  0  0  0  0  0  0  0
   -2.4369   -2.5758    1.1385 C   0  0  0  0  0  0  0  0  0  0  0  0
   -2.9581   -2.7011   -0.2432 C   0  0  0  0  0  0  0  0  0  0  0  0
   -1.9983   -2.2716   -1.2965 C   0  0  0  0  0  0  0  0  0  0  0  0
  1  2  1  0
  2  3  1  0
  3  4  2  0
  4  5  1  0
  5  6  1  0
  7  6  1  6
  7  8  1  0
  8  9  1  0
  9 10  3  0
  8 11  2  0
 11 12  1  0
 11 13  1  0
 13 14  1  0
 14 15  2  0
 15 16  1  0
 16 17  1  0
 17 18  1  0
 18 19  1  0
  6  2  2  0
 15  7  1  0
 19 14  1  0
M  END
>  <zinc_id>  (1) 
ZINC000000293945

>  <smiles>  (1) 
Cc1ccsc1[C@H]1C(C#N)=C(N)OC2=C1CCCC2

$$$$
