
     RDKit          3D

 21 23  0  0  0  0  0  0  0  0999 V2000
   -4.3881    2.8994   -0.8739 C   0  0  0  0  0  0  0  0  0  0  0  0
   -3.3391    1.9619   -1.0520 O   0  0  0  0  0  0  0  0  0  0  0  0
   -2.3125    1.7938   -0.1392 C   0  0  0  0  0  0  0  0  0  0  0  0
   -2.3247    2.5123    0.8895 O   0  0  0  0  0  0  0  0  0  0  0  0
   -1.2304    0.8370   -0.3081 C   0  0  0  0  0  0  0  0  0  0  0  0
   -0.0087    1.0339   -0.9289 C   0  0  0  0  0  0  0  0  0  0  0  0
    0.4919    2.2800   -1.5757 C   0  0  0  0  0  0  0  0  0  0  0  0
    0.7078   -0.1091   -0.8691 N   0  0  0  0  0  0  0  0  0  0  0  0
    2.0492   -0.3599   -1.3935 C   0  0  0  0  0  0  0  0  0  0  0  0
    3.0920   -0.0487   -0.3876 C   0  0  0  0  0  0  0  0  0  0  0  0
    3.6731    1.1900   -0.2631 C   0  0  0  0  0  0  0  0  0  0  0  0
    4.5746    1.0599    0.7698 C   0  0  0  0  0  0  0  0  0  0  0  0
    4.4876   -0.2272    1.2020 C   0  0  0  0  0  0  0  0  0  0  0  0
    3.5977   -0.8603    0.4941 O   0  0  0  0  0  0  0  0  0  0  0  0
   -0.0601   -1.0126   -0.2164 C   0  0  0  0  0  0  0  0  0  0  0  0
    0.1624   -2.3327    0.1272 C   0  0  0  0  0  0  0  0  0  0  0  0
   -0.7689   -3.0871    0.8040 C   0  0  0  0  0  0  0  0  0  0  0  0
   -1.9827   -2.5459    1.1726 C   0  0  0  0  0  0  0  0  0  0  0  0
   -2.9436   -3.2944    1.8608 O   0  0  0  0  0  0  0  0  0  0  0  0
   -2.2037   -1.2287    0.8293 C   0  0  0  0  0  0  0  0  0  0  0  0
   -1.2737   -0.4615    0.1489 C   0  0  0  0  0  0  0  0  0  0  0  0
  1  2  1  0
  2  3  1  0
  3  4  2  0
  3  5  1  0
  5  6  2  0
  6  7  1  0
  6  8  1  0
  8  9  1  0
  9 10  1  0
 10 11  2  0
 11 12  1  0
 12 13  2  0
 13 14  1  0
  8 15  1  0
 15 16  2  0
 16 17  1  0
 17 18  2  0
 18 19  1  0
 18 20  1  0
 20 21  2  0
 21  5  1  0
 14 10  1  0
 21 15  1  0
M  END
>  <zinc_id>  (1) 
ZINC000000091194

>  <smiles>  (1) 
COC(=O)c1c(C)n(Cc2ccco2)c2ccc(O)cc12

$$$$
