
     RDKit          3D

 21 22  0  0  0  0  0  0  0  0999 V2000
   -1.8330    4.1987   -0.3517 C   0  0  0  0  0  0  0  0  0  0  0  0
   -2.5845    2.9064   -0.0737 C   0  0  0  0  0  0  0  0  0  0  0  0
   -3.6351    2.6704   -1.1418 C   0  0  0  0  0  0  0  0  0  0  0  0
   -1.6259    1.7791   -0.0168 C   0  0  0  0  0  0  0  0  0  0  0  0
   -0.2728    1.9648   -0.2003 C   0  0  0  0  0  0  0  0  0  0  0  0
    0.6081    0.8856   -0.1416 C   0  0  0  0  0  0  0  0  0  0  0  0
    2.0196    1.1068   -0.3370 N   0  0  0  0  0  0  0  0  0  0  0  0
    2.8611   -0.0497   -0.2623 C   0  0  0  0  0  0  0  0  0  0  0  0
    4.2131    0.1256   -0.4441 C   0  0  0  0  0  0  0  0  0  0  0  0
    5.0310   -0.9761   -0.3748 C   0  0  0  0  0  0  0  0  0  0  0  0
    4.5055   -2.2244   -0.1289 C   0  0  0  0  0  0  0  0  0  0  0  0
    3.1751   -2.3004    0.0357 N   0  0  0  0  0  0  0  0  0  0  0  0
    2.3653   -1.2641   -0.0249 N   0  0  0  0  0  0  0  0  0  0  0  0
    0.1087   -0.3702    0.1024 C   0  0  0  0  0  0  0  0  0  0  0  0
   -1.2414   -0.5246    0.2808 C   0  0  0  0  0  0  0  0  0  0  0  0
   -1.8461   -1.8820    0.5520 C   0  0  0  0  0  0  0  0  0  0  0  0
   -2.5383   -1.8013    1.8901 C   0  0  0  0  0  0  0  0  0  0  0  0
   -2.8656   -2.1157   -0.5295 C   0  0  0  0  0  0  0  0  0  0  0  0
   -0.7976   -2.9629    0.5198 C   0  0  0  0  0  0  0  0  0  0  0  0
   -2.1338    0.5211    0.2284 C   0  0  0  0  0  0  0  0  0  0  0  0
   -3.5134    0.3131    0.4182 O   0  0  0  0  0  0  0  0  0  0  0  0
  1  2  1  0
  2  3  1  0
  2  4  1  0
  4  5  2  0
  5  6  1  0
  6  7  1  0
  7  8  1  0
  8  9  2  0
  9 10  1  0
 10 11  2  0
 11 12  1  0
 12 13  2  0
  6 14  2  0
 14 15  1  0
 15 16  1  0
 16 17  1  0
 16 18  1  0
 16 19  1  0
 15 20  2  0
 20 21  1  0
 20  4  1  0
 13  8  1  0
M  END
>  <zinc_id>  (1) 
ZINC000000009603

>  <smiles>  (1) 
CC(C)c1cc(Nc2cccnn2)cc(C(C)(C)C)c1O

$$$$
