
     RDKit          3D

 21 23  0  0  0  0  0  0  0  0999 V2000
    5.9241    1.0000    1.8181 O   0  0  0  0  0  0  0  0  0  0  0  0
    5.3729    0.0960    1.1632 N   0  0  0  0  0  4  0  0  0  0  0  0
    6.0271   -1.0621    0.8083 O   0  0  0  0  0  1  0  0  0  0  0  0
    4.0373    0.2645    0.7735 C   0  0  0  0  0  0  0  0  0  0  0  0
    3.2957    1.3841    1.0777 C   0  0  0  0  0  0  0  0  0  0  0  0
    2.0077    1.5994    0.7287 C   0  0  0  0  0  0  0  0  0  0  0  0
    1.3159    0.6168   -0.0161 C   0  0  0  0  0  0  0  0  0  0  0  0
    0.0752    0.6879   -0.4215 N   0  0  0  0  0  0  0  0  0  0  0  0
   -0.4536   -0.3036   -1.1127 C   0  0  0  0  0  0  0  0  0  0  0  0
   -1.7786   -0.4377   -1.6522 N   0  0  0  0  0  0  0  0  0  0  0  0
   -2.7455    0.5928   -1.4733 C   0  0  0  0  0  0  0  0  0  0  0  0
   -3.0497    0.8803   -0.0222 C   0  0  0  0  0  0  0  0  0  0  0  0
   -2.7623   -0.3131    0.8606 C   0  0  0  0  0  0  0  0  0  0  0  0
   -3.9018   -0.5577    1.8216 C   0  0  0  0  0  0  0  0  0  0  0  0
   -5.1923   -0.2229    1.0777 C   0  0  0  0  0  0  0  0  0  0  0  0
   -5.1777   -0.8159   -0.3094 C   0  0  0  0  0  0  0  0  0  0  0  0
   -5.2324    0.2594   -1.3776 C   0  0  0  0  0  0  0  0  0  0  0  0
   -3.9924    0.2122   -2.2404 C   0  0  0  0  0  0  0  0  0  0  0  0
    0.8494   -1.4033   -1.2071 S   0  0  0  0  0  0  0  0  0  0  0  0
    2.0216   -0.5108   -0.3372 C   0  0  0  0  0  0  0  0  0  0  0  0
    3.3594   -0.7046    0.0405 C   0  0  0  0  0  0  0  0  0  0  0  0
  1  2  2  0
  2  3  1  0
  2  4  1  0
  4  5  2  0
  5  6  1  0
  6  7  2  0
  7  8  1  0
  8  9  2  0
  9 10  1  0
 10 11  1  0
 11 12  1  0
 12 13  1  0
 13 14  1  0
 14 15  1  0
 15 16  1  0
 16 17  1  0
 17 18  1  0
  9 19  1  0
 19 20  1  0
 20 21  2  0
 21  4  1  0
 20  7  1  0
 18 11  1  0
M  CHG  2   2   1   3  -1
M  END
>  <zinc_id>  (1) 
ZINC000000125104

>  <smiles>  (1) 
O=[N+]([O-])c1ccc2nc(NC3CCCCCCC3)sc2c1

$$$$
