
     RDKit          3D

 21 22  0  0  0  0  0  0  0  0999 V2000
    1.1675   -2.8879    0.2399 C   0  0  0  0  0  0  0  0  0  0  0  0
    0.6358   -1.6016    0.8720 C   0  0  0  0  0  0  0  0  0  0  0  0
    1.6008   -0.5490    0.4764 C   0  0  0  0  0  0  0  0  0  0  0  0
    1.1123    0.4402   -0.2271 C   0  0  0  0  0  0  0  0  0  0  0  0
   -0.2846    0.4506   -0.5605 C   0  0  0  0  0  0  0  0  0  0  0  0
   -0.7436    0.7266   -1.8531 C   0  0  0  0  0  0  0  0  0  0  0  0
   -2.1029    0.6857   -1.8672 N   0  0  0  0  0  0  0  0  0  0  0  0
   -2.9776    0.9063   -2.9946 C   0  0  0  0  0  0  0  0  0  0  0  0
   -2.5362    0.3943   -0.6292 C   0  0  0  0  0  0  0  0  0  0  0  0
   -3.8239    0.2492   -0.1295 C   0  0  0  0  0  0  0  0  0  0  0  0
   -5.2402    0.4255   -1.1377 Cl  0  0  0  0  0  0  0  0  0  0  0  0
   -3.9690   -0.0452    1.2056 C   0  0  0  0  0  0  0  0  0  0  0  0
   -2.8698   -0.1915    2.0195 C   0  0  0  0  0  0  0  0  0  0  0  0
   -1.6160   -0.0388    1.4779 C   0  0  0  0  0  0  0  0  0  0  0  0
   -1.4183    0.2523    0.1630 C   0  0  0  0  0  0  0  0  0  0  0  0
    2.9791   -0.6859    0.8937 C   0  0  0  0  0  0  0  0  0  0  0  0
    3.3158   -1.6857    1.5629 O   0  0  0  0  0  0  0  0  0  0  0  0
    3.9314    0.2812    0.5586 N   0  0  0  0  0  0  0  0  0  0  0  0
    4.1811    0.7709   -0.5898 C   0  0  0  0  0  0  0  0  0  0  0  0
    5.1946    1.7546   -0.7294 N   0  0  0  0  0  0  0  0  0  0  0  0
    3.4636    0.3481   -1.7355 N   0  0  0  0  0  0  0  0  0  0  0  0
  1  2  1  0
  2  3  1  0
  3  4  2  0
  4  5  1  0
  5  6  2  0
  6  7  1  0
  7  8  1  0
  7  9  1  0
  9 10  2  0
 10 11  1  0
 10 12  1  0
 12 13  2  0
 13 14  1  0
 14 15  2  0
  3 16  1  0
 16 17  2  0
 16 18  1  0
 18 19  2  3
 19 20  1  0
 19 21  1  0
 15  5  1  0
 15  9  1  0
M  END
>  <zinc_id>  (1) 
ZINC000003949691

>  <smiles>  (1) 
CC/C(=C\c1cn(C)c2c(Cl)cccc12)C(=O)N=C(N)N

$$$$
