
     RDKit          3D

 19 20  0  0  0  0  0  0  0  0999 V2000
    5.4965   -0.8056   -0.4980 C   0  0  0  0  0  0  0  0  0  0  0  0
    4.0543   -0.5582   -0.3739 C   0  0  0  0  0  0  0  0  0  0  0  0
    3.3748   -0.2419   -1.5294 C   0  0  0  0  0  0  0  0  0  0  0  0
    2.0086   -0.0159   -1.4360 C   0  0  0  0  0  0  0  0  0  0  0  0
    1.2808    0.3112   -2.6039 O   0  0  0  0  0  0  0  0  0  0  0  0
    1.2950   -0.0896   -0.2512 C   0  0  0  0  0  0  0  0  0  0  0  0
   -0.0994    0.1391   -0.3275 N   0  0  0  0  0  0  0  0  0  0  0  0
   -0.9858    0.2824    0.7282 C   0  0  0  0  0  0  0  0  0  0  0  0
   -0.5780    0.2212    1.9095 O   0  0  0  0  0  0  0  0  0  0  0  0
   -2.4416    0.5078    0.5537 C   0  0  0  0  0  0  0  0  0  0  0  0
   -2.9221    1.7942    0.8560 C   0  0  0  0  0  0  0  0  0  0  0  0
   -4.2234    2.0891    0.6750 C   0  0  0  0  0  0  0  0  0  0  0  0
   -5.1046    1.1670    0.2006 C   0  0  0  0  0  0  0  0  0  0  0  0
   -4.6536   -0.1302   -0.1115 C   0  0  0  0  0  0  0  0  0  0  0  0
   -3.3101   -0.4271    0.0778 C   0  0  0  0  0  0  0  0  0  0  0  0
   -2.6765   -2.1886   -0.3088 Br  0  0  0  0  0  0  0  0  0  0  0  0
    1.9935   -0.4084    0.9001 C   0  0  0  0  0  0  0  0  0  0  0  0
    3.3464   -0.6365    0.8249 C   0  0  0  0  0  0  0  0  0  0  0  0
    4.1451   -1.0102    2.0438 C   0  0  0  0  0  0  0  0  0  0  0  0
  1  2  1  0
  2  3  2  0
  3  4  1  0
  4  5  1  0
  4  6  2  0
  6  7  1  0
  7  8  1  0
  8  9  2  0
  8 10  1  0
 10 11  2  0
 11 12  1  0
 12 13  2  0
 13 14  1  0
 14 15  2  0
 15 16  1  0
  6 17  1  0
 17 18  2  0
 18 19  1  0
 18  2  1  0
 15 10  1  0
M  END
>  <zinc_id>  (1) 
ZINC000000330816

>  <smiles>  (1) 
Cc1cc(O)c(NC(=O)c2ccccc2Br)cc1C

$$$$
