
     RDKit          3D

 21 23  0  0  0  0  0  0  0  0999 V2000
    3.6185   -3.3081    0.6535 C   0  0  0  0  0  0  0  0  0  0  0  0
    3.1611   -1.8884    0.5136 C   0  0  0  0  0  0  0  0  0  0  0  0
    4.0699   -0.8338    0.5796 C   0  0  0  0  0  0  0  0  0  0  0  0
    3.6728    0.4738    0.4540 C   0  0  0  0  0  0  0  0  0  0  0  0
    4.6449    1.5811    0.5257 C   0  0  0  0  0  0  0  0  0  0  0  0
    2.3415    0.7508    0.2576 C   0  0  0  0  0  0  0  0  0  0  0  0
    1.9248    2.0034    0.1324 N   0  0  0  0  0  0  0  0  0  0  0  0
    0.6198    2.2767   -0.0602 C   0  0  0  0  0  0  0  0  0  0  0  0
    0.2141    3.7176   -0.1942 C   0  0  0  0  0  0  0  0  0  0  0  0
   -0.3393    1.2879   -0.1366 C   0  0  0  0  0  0  0  0  0  0  0  0
    0.0537   -0.0256   -0.0112 C   0  0  0  0  0  0  0  0  0  0  0  0
   -0.8595   -1.1232   -0.0755 N   0  0  0  0  0  0  0  0  0  0  0  0
   -2.2449   -0.9547   -0.2733 C   0  0  0  0  0  0  0  0  0  0  0  0
   -3.0588   -2.0451   -0.3242 C   0  0  0  0  0  0  0  0  0  0  0  0
   -4.4160   -1.9021   -0.5169 C   0  0  0  0  0  0  0  0  0  0  0  0
   -4.9590   -0.6552   -0.6592 C   0  0  0  0  0  0  0  0  0  0  0  0
   -4.1445    0.4698   -0.6100 C   0  0  0  0  0  0  0  0  0  0  0  0
   -4.7179    1.7457   -0.7581 O   0  0  0  0  0  0  0  0  0  0  0  0
   -2.8084    0.2885   -0.4182 C   0  0  0  0  0  0  0  0  0  0  0  0
    1.3935   -0.2808    0.1851 C   0  0  0  0  0  0  0  0  0  0  0  0
    1.8336   -1.5783    0.3159 C   0  0  0  0  0  0  0  0  0  0  0  0
  1  2  1  0
  2  3  2  0
  3  4  1  0
  4  5  1  0
  4  6  2  0
  6  7  1  0
  7  8  2  0
  8  9  1  0
  8 10  1  0
 10 11  2  0
 11 12  1  0
 12 13  1  0
 13 14  2  0
 14 15  1  0
 15 16  2  0
 16 17  1  0
 17 18  1  0
 17 19  2  0
 11 20  1  0
 20 21  2  0
 21  2  1  0
 20  6  1  0
 19 13  1  0
M  END
>  <zinc_id>  (1) 
ZINC000000071990

>  <smiles>  (1) 
Cc1cc(C)c2nc(C)cc(Nc3cccc(O)c3)c2c1

$$$$
