
     RDKit          3D

 21 23  0  0  0  0  0  0  0  0999 V2000
   -5.2460   -0.4204    1.3711 C   0  0  0  0  0  0  0  0  0  0  0  0
   -4.4436    0.2920    0.4374 O   0  0  0  0  0  0  0  0  0  0  0  0
   -3.0981   -0.0120    0.2954 C   0  0  0  0  0  0  0  0  0  0  0  0
   -2.5546   -1.0094    1.0620 C   0  0  0  0  0  0  0  0  0  0  0  0
   -1.2223   -1.3447    0.9556 C   0  0  0  0  0  0  0  0  0  0  0  0
   -0.4407   -0.6640    0.0662 C   0  0  0  0  0  0  0  0  0  0  0  0
    1.0061   -0.9200   -0.1108 C   0  0  0  0  0  0  0  0  0  0  0  0
    1.3966   -2.1153   -0.6614 C   0  0  0  0  0  0  0  0  0  0  0  0
    0.5225   -3.2586   -1.1275 C   0  0  0  0  0  0  0  0  0  0  0  0
    3.0971   -1.9899   -0.6965 S   0  0  0  0  0  0  0  0  0  0  0  0
    3.2694   -0.4387   -0.0189 C   0  0  0  0  0  0  0  0  0  0  0  0
    4.3584    0.3369    0.2613 N   0  0  0  0  0  0  0  0  0  0  0  0
    4.1888    1.5661    0.8076 C   0  0  0  0  0  0  0  0  0  0  0  0
    2.9445    1.9624    1.0487 N   0  0  0  0  0  0  0  0  0  0  0  0
    1.8606    1.2285    0.7880 C   0  0  0  0  0  0  0  0  0  0  0  0
    0.5627    1.7935    1.0927 N   0  0  0  0  0  0  0  0  0  0  0  0
    1.9835   -0.0498    0.2222 C   0  0  0  0  0  0  0  0  0  0  0  0
   -0.9820    0.3287   -0.6975 C   0  0  0  0  0  0  0  0  0  0  0  0
   -2.3019    0.6613   -0.5914 C   0  0  0  0  0  0  0  0  0  0  0  0
   -2.8710    1.6865   -1.3740 O   0  0  0  0  0  0  0  0  0  0  0  0
   -2.0300    2.3666   -2.2772 C   0  0  0  0  0  0  0  0  0  0  0  0
  1  2  1  0
  2  3  1  0
  3  4  2  0
  4  5  1  0
  5  6  2  0
  6  7  1  0
  7  8  2  0
  8  9  1  0
  8 10  1  0
 10 11  1  0
 11 12  2  0
 12 13  1  0
 13 14  2  0
 14 15  1  0
 15 16  1  0
 15 17  2  0
  6 18  1  0
 18 19  2  0
 19 20  1  0
 20 21  1  0
 19  3  1  0
 17  7  1  0
 17 11  1  0
M  END
>  <zinc_id>  (1) 
ZINC000000235359

>  <smiles>  (1) 
COc1ccc(-c2c(C)sc3ncnc(N)c23)cc1OC

$$$$
