
     RDKit          3D

 19 20  0  0  0  0  0  0  0  0999 V2000
   -3.2100    3.0723   -1.4451 C   0  0  0  0  0  0  0  0  0  0  0  0
   -3.7653    1.8219   -1.0705 O   0  0  0  0  0  0  0  0  0  0  0  0
   -2.9243    0.8516   -0.5432 C   0  0  0  0  0  0  0  0  0  0  0  0
   -1.5815    1.0785   -0.3803 C   0  0  0  0  0  0  0  0  0  0  0  0
   -0.7919    0.0800    0.1481 C   0  0  0  0  0  0  0  0  0  0  0  0
    0.6526    0.3180    0.3258 C   0  0  0  0  0  0  0  0  0  0  0  0
    1.6154   -0.1573   -1.1261 S   0  0  0  0  0  0  0  0  0  0  0  0
    3.3364    0.1813   -0.7783 C   0  0  0  0  0  0  0  0  0  0  0  0
    3.7488    0.7173    0.4320 C   0  0  0  0  0  0  0  0  0  0  0  0
    5.0874    0.9544    0.6375 C   0  0  0  0  0  0  0  0  0  0  0  0
    6.0279    0.6689   -0.3378 C   0  0  0  0  0  0  0  0  0  0  0  0
    5.6309    0.1319   -1.5551 C   0  0  0  0  0  0  0  0  0  0  0  0
    4.2888   -0.0901   -1.7222 C   0  0  0  0  0  0  0  0  0  0  0  0
   -1.3552   -1.1274    0.5049 C   0  0  0  0  0  0  0  0  0  0  0  0
   -2.7015   -1.3803    0.3512 C   0  0  0  0  0  0  0  0  0  0  0  0
   -3.2727   -2.5941    0.7090 O   0  0  0  0  0  0  0  0  0  0  0  0
   -2.4112   -3.5962    1.2522 C   0  0  0  0  0  0  0  0  0  0  0  0
   -3.4819   -0.3715   -0.1795 C   0  0  0  0  0  0  0  0  0  0  0  0
   -4.8926   -0.5592   -0.3700 N   0  0  0  0  0  0  0  0  0  0  0  0
  1  2  1  0
  2  3  1  0
  3  4  2  0
  4  5  1  0
  5  6  1  0
  6  7  1  0
  7  8  1  0
  8  9  2  0
  9 10  1  0
 10 11  2  0
 11 12  1  0
 12 13  2  0
  5 14  2  0
 14 15  1  0
 15 16  1  0
 16 17  1  0
 15 18  2  0
 18 19  1  0
 18  3  1  0
 13  8  1  0
M  END
>  <zinc_id>  (1) 
ZINC000001585780

>  <smiles>  (1) 
COc1cc(CSc2ccccc2)cc(OC)c1N

$$$$
