
     RDKit          3D

 20 22  0  0  0  0  0  0  0  0999 V2000
   -5.6302   -0.4875   -0.6210 C   0  0  0  0  0  0  0  0  0  0  0  0
   -5.0970    0.8890   -0.8287 C   0  0  0  0  0  0  0  0  0  0  0  0
   -3.7002    0.8864   -1.0751 O   0  0  0  0  0  0  0  0  0  0  0  0
   -2.8481    0.3515   -0.0828 C   0  0  0  0  0  0  0  0  0  0  0  0
   -3.3877   -0.1442    1.0856 C   0  0  0  0  0  0  0  0  0  0  0  0
   -2.6018   -0.6887    2.0836 C   0  0  0  0  0  0  0  0  0  0  0  0
   -1.2362   -0.7300    1.8845 C   0  0  0  0  0  0  0  0  0  0  0  0
   -0.2335   -1.2534    2.6145 N   0  0  0  0  0  0  0  0  0  0  0  0
    0.9106   -1.1100    1.9633 C   0  0  0  0  0  0  0  0  0  0  0  0
    0.6870   -0.4557    0.7330 C   0  0  0  0  0  0  0  0  0  0  0  0
    1.7387   -0.0508   -0.2250 C   0  0  0  0  0  0  0  0  0  0  0  0
    3.0166   -0.1038    0.1552 N   0  0  0  0  0  0  0  0  0  0  0  0
    3.9679    0.2647   -0.6604 C   0  0  0  0  0  0  0  0  0  0  0  0
    5.3685    0.2055   -0.3647 N   0  0  0  0  0  0  0  0  0  0  0  0
    6.3196    0.5962   -1.3771 C   0  0  0  0  0  0  0  0  0  0  0  0
    3.1153    0.7342   -2.0556 S   0  0  0  0  0  0  0  0  0  0  0  0
    1.5042    0.4103   -1.4861 C   0  0  0  0  0  0  0  0  0  0  0  0
    0.2376    0.6408   -2.2562 C   0  0  0  0  0  0  0  0  0  0  0  0
   -0.6490   -0.2387    0.7219 C   0  0  0  0  0  0  0  0  0  0  0  0
   -1.4822    0.2825   -0.2090 C   0  0  0  0  0  0  0  0  0  0  0  0
  1  2  1  0
  2  3  1  0
  3  4  1  0
  4  5  2  0
  5  6  1  0
  6  7  2  0
  7  8  1  0
  8  9  1  0
  9 10  2  0
 10 11  1  0
 11 12  1  0
 12 13  2  0
 13 14  1  0
 14 15  1  0
 13 16  1  0
 16 17  1  0
 17 18  1  0
 10 19  1  0
 19 20  2  0
 20  4  1  0
 19  7  1  0
 17 11  2  0
M  END
>  <zinc_id>  (1) 
ZINC000002327096

>  <smiles>  (1) 
CCOc1ccc2[nH]cc(-c3nc(NC)sc3C)c2c1

$$$$
