
     RDKit          3D

 21 24  0  0  0  0  0  0  0  0999 V2000
   -2.1305    1.3955   -2.0632 C   0  0  0  0  0  0  0  0  0  0  0  0
   -2.4486    0.4128   -0.9912 C   0  0  0  0  0  0  0  0  0  0  0  0
   -3.7477    0.1399   -0.6446 C   0  0  0  0  0  0  0  0  0  0  0  0
   -4.0658   -0.7681    0.3452 C   0  0  0  0  0  0  0  0  0  0  0  0
   -5.4199   -0.9890    0.6414 O   0  0  0  0  0  0  0  0  0  0  0  0
   -3.0514   -1.4055    0.9864 C   0  0  0  0  0  0  0  0  0  0  0  0
   -1.7289   -1.1182    0.6207 C   0  0  0  0  0  0  0  0  0  0  0  0
   -1.3884   -0.2678   -0.3019 C   0  0  0  0  0  0  0  0  0  0  0  0
   -0.0001    0.2795   -0.7566 C   0  0  1  0  0  0  0  0  0  0  0  0
    0.2120    1.4902    0.3409 C   0  0  0  0  0  0  0  0  0  0  0  0
    1.3705    2.1057   -0.4078 C   0  0  0  0  0  0  0  0  0  0  0  0
    2.5737    1.2531   -0.1917 C   0  0  2  0  0  0  0  0  0  0  0  0
    3.6438    1.9639    0.5932 C   0  0  0  0  0  0  0  0  0  0  0  0
    3.0827    0.4912   -1.2928 C   0  0  0  0  0  0  0  0  0  0  0  0
    3.1143    0.7581   -2.4703 O   0  0  0  0  0  0  0  0  0  0  0  0
    3.6132   -0.7836   -0.7432 C   0  0  0  0  0  0  0  0  0  0  0  0
    3.3476   -0.7721    0.7208 C   0  0  0  0  0  0  0  0  0  0  0  0
    2.0197    0.1370    0.8451 C   0  0  2  0  0  0  0  0  0  0  0  0
    1.1214   -0.7784   -0.2648 C   0  0  1  0  0  0  0  0  0  0  0  0
    0.5080   -1.6741    0.7897 C   0  0  0  0  0  0  0  0  0  0  0  0
   -0.6255   -1.8705    1.2012 C   0  0  0  0  0  0  0  0  0  0  0  0
  1  2  1  0
  2  3  2  0
  3  4  1  0
  4  5  1  0
  4  6  2  0
  6  7  1  0
  7  8  2  0
  8  9  1  0
  9 10  1  1
 10 11  1  0
 11 12  1  0
 12 13  1  1
 12 14  1  0
 14 15  2  0
 14 16  1  0
 16 17  1  0
 18 17  1  6
 18 19  1  0
 19 20  1  1
 20 21  2  0
  8  2  1  0
 19  9  1  0
 21  7  1  0
 18 12  1  0
M  END
>  <zinc_id>  (1) 
ZINC000000173989

>  <smiles>  (1) 
Cc1cc(O)cc2c1[C@H]1CC[C@]3(C)C(=O)CC[C@@H]3[C@H]1C=C2

$$$$
