
     RDKit          3D

 18 19  0  0  0  0  0  0  0  0999 V2000
    4.8327    1.8850   -0.2575 C   0  0  0  0  0  0  0  0  0  0  0  0
    4.5265    0.8949    0.5688 C   0  0  0  0  0  0  0  0  0  0  0  0
    5.5369    0.5026    1.5873 C   0  0  0  0  0  0  0  0  0  0  0  0
    3.2375    0.1579    0.5363 C   0  0  0  0  0  0  0  0  0  0  0  0
    2.4063    0.7227   -0.5614 C   0  0  0  0  0  0  0  0  0  0  0  0
    1.0782    0.1040   -0.7339 C   0  0  1  0  0  0  0  0  0  0  0  0
    0.3002    0.7303   -1.8662 C   0  0  0  0  0  0  0  0  0  0  0  0
    1.0868   -1.3417   -0.9368 N   0  0  0  0  0  0  0  0  0  0  0  0
   -0.2716   -1.7145   -0.6075 C   0  0  0  0  0  0  0  0  0  0  0  0
   -0.8828   -2.7850   -0.8087 O   0  0  0  0  0  0  0  0  0  0  0  0
   -0.8498   -0.5867    0.0307 N   0  0  0  0  0  0  0  0  0  0  0  0
   -2.2071   -0.2137    0.2393 C   0  0  0  0  0  0  0  0  0  0  0  0
   -2.5871    1.1281    0.1874 C   0  0  0  0  0  0  0  0  0  0  0  0
   -3.8805    1.5545    0.3803 C   0  0  0  0  0  0  0  0  0  0  0  0
   -4.8717    0.6151    0.6412 C   0  0  0  0  0  0  0  0  0  0  0  0
   -4.4946   -0.7142    0.6926 C   0  0  0  0  0  0  0  0  0  0  0  0
   -3.1979   -1.1303    0.4981 C   0  0  0  0  0  0  0  0  0  0  0  0
    0.2380    0.1909    0.4690 N   0  0  0  0  0  0  0  0  0  0  0  0
  1  2  2  0
  2  3  1  0
  2  4  1  0
  4  5  1  0
  5  6  1  0
  6  7  1  6
  6  8  1  0
  8  9  1  0
  9 10  2  0
  9 11  1  0
 11 12  1  0
 12 13  2  0
 13 14  1  0
 14 15  2  0
 15 16  1  0
 16 17  2  0
 11 18  1  0
 18  6  1  0
 17 12  1  0
M  END
>  <zinc_id>  (1) 
ZINC000000099105

>  <smiles>  (1) 
C=C(C)CC[C@@]1(C)NC(=O)N(c2ccccc2)N1

$$$$
