
     RDKit          3D

 21 22  0  0  0  0  0  0  0  0999 V2000
    4.6782    1.9912    0.4028 C   0  0  0  0  0  0  0  0  0  0  0  0
    3.9417    1.8929   -0.9199 C   0  0  0  0  0  0  0  0  0  0  0  0
    3.2192    0.6809   -1.0374 O   0  0  0  0  0  0  0  0  0  0  0  0
    2.2247    0.3854   -0.1136 C   0  0  0  0  0  0  0  0  0  0  0  0
    1.9875    1.2064    0.8117 O   0  0  0  0  0  0  0  0  0  0  0  0
    1.4917   -0.9002   -0.2772 C   0  0  0  0  0  0  0  0  0  0  0  0
    0.3740   -0.8765    0.9410 C   0  0  1  0  0  0  0  0  0  0  0  0
   -0.4279    0.4298    0.5175 C   0  0  0  0  0  0  0  0  0  0  0  0
   -0.3189    1.0538   -0.6295 C   0  0  0  0  0  0  0  0  0  0  0  0
   -1.0620    2.1787   -0.8934 C   0  0  0  0  0  0  0  0  0  0  0  0
   -1.9172    2.6453    0.0465 C   0  0  0  0  0  0  0  0  0  0  0  0
   -2.7148    3.8154   -0.1810 N   0  0  0  0  0  0  0  0  0  0  0  0
   -2.0543    2.0083    1.2666 C   0  0  0  0  0  0  0  0  0  0  0  0
   -1.2754    0.8572    1.5014 C   0  0  0  0  0  0  0  0  0  0  0  0
   -0.6123   -1.9089    0.2592 N   0  0  0  0  0  0  0  0  0  0  0  0
   -0.7971   -2.1008   -1.0086 C   0  0  0  0  0  0  0  0  0  0  0  0
   -0.1048   -1.3890   -2.1233 C   0  0  0  0  0  0  0  0  0  0  0  0
   -1.7608   -3.0990   -1.1160 C   0  0  0  0  0  0  0  0  0  0  0  0
   -2.1109   -3.4616    0.1681 C   0  0  0  0  0  0  0  0  0  0  0  0
   -1.3727   -2.6967    1.0436 C   0  0  0  0  0  0  0  0  0  0  0  0
   -1.3879   -2.7126    2.5345 C   0  0  0  0  0  0  0  0  0  0  0  0
  1  2  1  0
  2  3  1  0
  3  4  1  0
  4  5  2  0
  4  6  1  0
  7  6  1  6
  7  8  1  0
  8  9  2  0
  9 10  1  0
 10 11  2  0
 11 12  1  0
 11 13  1  0
 13 14  2  0
  7 15  1  0
 15 16  1  0
 16 17  1  0
 16 18  2  0
 18 19  1  0
 19 20  2  0
 20 21  1  0
 14  8  1  0
 20 15  1  0
M  END
>  <zinc_id>  (1) 
ZINC000004052857

>  <smiles>  (1) 
CCOC(=O)C[C@@H](c1ccc(N)cc1)n1c(C)ccc1C

$$$$
