
     RDKit          3D

 20 21  0  0  0  0  0  0  0  0999 V2000
   -4.4003    2.8909   -1.0327 C   0  0  0  0  0  0  0  0  0  0  0  0
   -3.3449    2.1681   -1.6014 O   0  0  0  0  0  0  0  0  0  0  0  0
   -2.6753    1.1468   -0.9160 C   0  0  0  0  0  0  0  0  0  0  0  0
   -1.6404    0.4536   -1.5028 C   0  0  0  0  0  0  0  0  0  0  0  0
   -0.9642   -0.5534   -0.8560 C   0  0  0  0  0  0  0  0  0  0  0  0
   -1.3359   -0.8866    0.4369 C   0  0  0  0  0  0  0  0  0  0  0  0
   -0.6440   -1.9283    1.1196 N   0  0  0  0  0  0  0  0  0  0  0  0
    0.4435   -2.6672    0.5228 C   0  0  0  0  0  0  0  0  0  0  0  0
    1.5731   -1.7847    0.1465 C   0  0  0  0  0  0  0  0  0  0  0  0
    2.7341   -2.1966   -0.4345 C   0  0  0  0  0  0  0  0  0  0  0  0
    3.6522   -1.2769   -0.7105 C   0  0  0  0  0  0  0  0  0  0  0  0
    3.3789    0.0239   -0.3965 C   0  0  0  0  0  0  0  0  0  0  0  0
    4.1580    1.1956   -0.5731 N   0  0  0  0  0  4  0  0  0  0  0  0
    3.6845    2.2782   -0.2015 O   0  0  0  0  0  0  0  0  0  0  0  0
    5.4023    1.1959   -1.1308 O   0  0  0  0  0  1  0  0  0  0  0  0
    1.8188   -0.1029    0.2840 S   0  0  0  0  0  0  0  0  0  0  0  0
   -2.3674   -0.2170    1.0611 C   0  0  0  0  0  0  0  0  0  0  0  0
   -2.7033   -0.5897    2.3628 O   0  0  0  0  0  0  0  0  0  0  0  0
   -3.7567    0.0688    3.0473 C   0  0  0  0  0  0  0  0  0  0  0  0
   -3.0131    0.7817    0.3747 C   0  0  0  0  0  0  0  0  0  0  0  0
  1  2  1  0
  2  3  1  0
  3  4  2  0
  4  5  1  0
  5  6  2  0
  6  7  1  0
  7  8  1  0
  8  9  1  0
  9 10  2  0
 10 11  1  0
 11 12  2  0
 12 13  1  0
 13 14  2  0
 13 15  1  0
 12 16  1  0
  6 17  1  0
 17 18  1  0
 18 19  1  0
 17 20  2  0
 20  3  1  0
 16  9  1  0
M  CHG  2  13   1  15  -1
M  END
>  <zinc_id>  (1) 
ZINC000000279589

>  <smiles>  (1) 
COc1ccc(NCc2ccc([N+](=O)[O-])s2)c(OC)c1

$$$$
