
     RDKit          3D

 18 19  0  0  0  0  0  0  0  0999 V2000
   -4.8237    2.5827   -1.9807 C   0  0  0  0  0  0  0  0  0  0  0  0
   -4.8254    1.1814   -1.4004 C   0  0  0  0  0  0  0  0  0  0  0  0
   -3.4825    0.8636   -1.0825 O   0  0  0  0  0  0  0  0  0  0  0  0
   -3.0793   -0.3286   -0.5326 C   0  0  0  0  0  0  0  0  0  0  0  0
   -3.9641   -1.1911   -0.2980 O   0  0  0  0  0  0  0  0  0  0  0  0
   -1.6818   -0.6217   -0.2173 C   0  0  0  0  0  0  0  0  0  0  0  0
   -0.5730    0.1755   -0.3937 C   0  0  0  0  0  0  0  0  0  0  0  0
    0.5234   -0.5284    0.0500 C   0  0  0  0  0  0  0  0  0  0  0  0
    1.8856   -0.0232    0.0298 C   0  0  0  0  0  0  0  0  0  0  0  0
    2.1650    1.2358   -0.4529 C   0  0  0  0  0  0  0  0  0  0  0  0
    3.4558    1.7550   -0.4888 C   0  0  0  0  0  0  0  0  0  0  0  0
    4.4879    0.9761   -0.0230 C   0  0  0  0  0  0  0  0  0  0  0  0
    5.8099    1.5067   -0.0592 N   0  0  0  0  0  0  0  0  0  0  0  0
    4.2156   -0.2834    0.4609 C   0  0  0  0  0  0  0  0  0  0  0  0
    2.9388   -0.8038    0.4993 C   0  0  0  0  0  0  0  0  0  0  0  0
    0.1095   -1.6981    0.4771 O   0  0  0  0  0  0  0  0  0  0  0  0
   -1.2002   -1.7898    0.3333 C   0  0  0  0  0  0  0  0  0  0  0  0
   -1.9613   -3.0086    0.7325 C   0  0  0  0  0  0  0  0  0  0  0  0
  1  2  1  0
  2  3  1  0
  3  4  1  0
  4  5  2  0
  4  6  1  0
  6  7  1  0
  7  8  2  0
  8  9  1  0
  9 10  2  0
 10 11  1  0
 11 12  2  0
 12 13  1  0
 12 14  1  0
 14 15  2  0
  8 16  1  0
 16 17  1  0
 17 18  1  0
 17  6  2  0
 15  9  1  0
M  END
>  <zinc_id>  (1) 
ZINC000000113368

>  <smiles>  (1) 
CCOC(=O)c1cc(-c2ccc(N)cc2)oc1C

$$$$
