
     RDKit          3D

 20 21  0  0  0  0  0  0  0  0999 V2000
   -4.9353    0.9025   -0.3061 C   0  0  0  0  0  0  0  0  0  0  0  0
   -4.5132    0.6838    1.1527 C   0  0  0  0  0  0  0  0  0  0  0  0
   -5.3186    1.5594    2.0906 C   0  0  0  0  0  0  0  0  0  0  0  0
   -4.7362   -0.7923    1.4260 C   0  0  0  0  0  0  0  0  0  0  0  0
   -3.1227    1.0482    1.3291 N   0  0  0  0  0  0  0  0  0  0  0  0
   -2.0821    0.3796    0.5869 C   0  0  0  0  0  0  0  0  0  0  0  0
   -2.2698   -0.5774   -0.2785 N   0  0  0  0  0  0  0  0  0  0  0  0
   -1.2448   -1.1095   -0.8924 C   0  0  0  0  0  0  0  0  0  0  0  0
   -1.4201   -2.1766   -1.8612 N   0  0  0  0  0  0  0  0  0  0  0  0
   -0.0151   -0.6350   -0.5973 C   0  0  0  0  0  0  0  0  0  0  0  0
    1.2831   -1.0514   -1.1352 C   0  0  0  0  0  0  0  0  0  0  0  0
    1.3690   -1.9563   -1.9801 O   0  0  0  0  0  0  0  0  0  0  0  0
    2.4706   -0.3904   -0.6668 C   0  0  0  0  0  0  0  0  0  0  0  0
    3.6343   -0.3268   -1.4292 C   0  0  0  0  0  0  0  0  0  0  0  0
    4.7133    0.3281   -0.8904 C   0  0  0  0  0  0  0  0  0  0  0  0
    4.7211    0.9245    0.3510 C   0  0  0  0  0  0  0  0  0  0  0  0
    5.8317    1.5635    0.8326 F   0  0  0  0  0  0  0  0  0  0  0  0
    3.5618    0.8484    1.0841 C   0  0  0  0  0  0  0  0  0  0  0  0
    2.4624    0.1992    0.5725 C   0  0  0  0  0  0  0  0  0  0  0  0
   -0.3893    0.5786    0.5722 S   0  0  0  0  0  0  0  0  0  0  0  0
  1  2  1  0
  2  3  1  0
  2  4  1  0
  2  5  1  0
  5  6  1  0
  6  7  2  0
  7  8  1  0
  8  9  1  0
  8 10  2  0
 10 11  1  0
 11 12  2  0
 11 13  1  0
 13 14  2  0
 14 15  1  0
 15 16  2  0
 16 17  1  0
 16 18  1  0
 18 19  2  0
 10 20  1  0
 20  6  1  0
 19 13  1  0
M  END
>  <zinc_id>  (1) 
ZINC000001402582

>  <smiles>  (1) 
CC(C)(C)Nc1nc(N)c(C(=O)c2ccc(F)cc2)s1

$$$$
