
     RDKit          3D

 19 20  0  0  0  0  0  0  0  0999 V2000
   -4.7495   -1.5220    0.5185 C   0  0  0  0  0  0  0  0  0  0  0  0
   -4.9156   -0.1194   -0.3212 C   0  0  2  0  0  0  0  0  0  0  0  0
   -3.4957   -0.2280   -1.0052 C   0  0  0  0  0  0  0  0  0  0  0  0
   -2.5334    0.5639   -0.8663 C   0  0  0  0  0  0  0  0  0  0  0  0
   -1.3687    0.2450   -1.5875 N   0  0  0  0  0  0  0  0  0  0  0  0
   -0.0768    0.3302   -1.1650 N   0  0  0  0  0  0  0  0  0  0  0  0
    0.6892   -0.6632   -0.5403 C   0  0  0  0  0  0  0  0  0  0  0  0
    0.1233   -1.7679   -0.3426 O   0  0  0  0  0  0  0  0  0  0  0  0
    2.0816   -0.4489   -0.1289 C   0  0  0  0  0  0  0  0  0  0  0  0
    2.7061    0.7611   -0.3434 C   0  0  0  0  0  0  0  0  0  0  0  0
    3.9841    0.9888    0.0231 C   0  0  0  0  0  0  0  0  0  0  0  0
    4.6720    2.5683   -0.3020 Cl  0  0  0  0  0  0  0  0  0  0  0  0
    4.6912   -0.0209    0.6329 C   0  0  0  0  0  0  0  0  0  0  0  0
    4.0770   -1.2221    0.8479 C   0  0  0  0  0  0  0  0  0  0  0  0
    2.7858   -1.4483    0.4761 C   0  0  0  0  0  0  0  0  0  0  0  0
    2.1888   -2.6767    0.7069 O   0  0  0  0  0  0  0  0  0  0  0  0
   -2.4925    1.7688   -0.0445 C   0  0  0  0  0  0  0  0  0  0  0  0
   -3.9228    2.0909    0.3372 C   0  0  0  0  0  0  0  0  0  0  0  0
   -4.4442    0.8004    0.9309 C   0  0  0  0  0  0  0  0  0  0  0  0
  2  1  1  1
  2  3  1  0
  3  4  2  0
  4  5  1  0
  5  6  1  0
  6  7  1  0
  7  8  2  0
  7  9  1  0
  9 10  2  0
 10 11  1  0
 11 12  1  0
 11 13  2  0
 13 14  1  0
 14 15  2  0
 15 16  1  0
  4 17  1  0
 17 18  1  0
 18 19  1  0
 19  2  1  0
 15  9  1  0
M  END
>  <zinc_id>  (1) 
ZINC000002750522

>  <smiles>  (1) 
C[C@@H]1C=C(NNC(=O)c2cc(Cl)ccc2O)CCC1

$$$$
