
     RDKit          3D

 20 22  0  0  0  0  0  0  0  0999 V2000
   -0.8991   -0.6808   -1.8697 O   0  0  0  0  0  0  0  0  0  0  0  0
   -1.3006   -0.2142   -0.7751 C   0  0  0  0  0  0  0  0  0  0  0  0
   -2.6524   -0.3253   -0.4501 C   0  0  0  0  0  0  0  0  0  0  0  0
   -3.5610   -0.9317   -1.2938 C   0  0  0  0  0  0  0  0  0  0  0  0
   -4.9039   -1.0248   -0.9365 C   0  0  0  0  0  0  0  0  0  0  0  0
   -5.2577   -0.4874    0.2803 C   0  0  0  0  0  0  0  0  0  0  0  0
   -4.3682    0.1064    1.1065 N   0  0  0  0  0  0  0  0  0  0  0  0
   -3.0644    0.1958    0.7576 C   0  0  0  0  0  0  0  0  0  0  0  0
   -2.1737    0.7873    1.5788 N   0  0  0  0  0  0  0  0  0  0  0  0
   -0.8866    0.8943    1.2719 C   0  0  0  0  0  0  0  0  0  0  0  0
    0.2171    1.6920    2.4187 S   0  0  0  0  0  0  0  0  0  0  0  0
   -0.4677    0.3879    0.0907 N   0  0  0  0  0  0  0  0  0  0  0  0
    0.9280    0.5081   -0.2340 C   0  0  0  0  0  0  0  0  0  0  0  0
    1.6552   -0.7044    0.2833 C   0  0  0  0  0  0  0  0  0  0  0  0
    3.1040   -0.5227   -0.0844 C   0  0  0  0  0  0  0  0  0  0  0  0
    3.9647   -0.4913    0.9290 C   0  0  0  0  0  0  0  0  0  0  0  0
    5.4287   -0.3187    0.7351 C   0  0  0  0  0  0  0  0  0  0  0  0
    5.7689    0.2081   -0.6407 C   0  0  0  0  0  0  0  0  0  0  0  0
    4.9759   -0.5693   -1.6635 C   0  0  0  0  0  0  0  0  0  0  0  0
    3.4926   -0.3919   -1.5041 C   0  0  0  0  0  0  0  0  0  0  0  0
  1  2  2  0
  2  3  1  0
  3  4  2  0
  4  5  1  0
  5  6  2  0
  6  7  1  0
  7  8  2  0
  8  9  1  0
  9 10  2  0
 10 11  1  0
 10 12  1  0
 12 13  1  0
 13 14  1  0
 14 15  1  0
 15 16  2  0
 16 17  1  0
 17 18  1  0
 18 19  1  0
 19 20  1  0
 12  2  1  0
 20 15  1  0
  8  3  1  0
M  END
>  <zinc_id>  (1) 
ZINC000000424540

>  <smiles>  (1) 
O=c1c2cccnc2nc(S)n1CCC1=CCCCC1

$$$$
