
     RDKit          3D

 18 18  0  0  0  0  0  0  0  0999 V2000
   -3.2065    2.5229   -0.0275 C   0  0  0  0  0  0  0  0  0  0  0  0
   -3.0027    1.1119    0.3554 C   0  0  0  0  0  0  0  0  0  0  0  0
   -4.0638    0.3033    0.7348 C   0  0  0  0  0  0  0  0  0  0  0  0
   -3.8651   -1.0112    1.0894 C   0  0  0  0  0  0  0  0  0  0  0  0
   -2.6350   -1.5502    1.0785 C   0  0  0  0  0  0  0  0  0  0  0  0
   -2.3511   -2.8757    1.4243 O   0  0  0  0  0  0  0  0  0  0  0  0
   -1.5131   -0.7848    0.7035 C   0  0  0  0  0  0  0  0  0  0  0  0
   -0.2880   -1.2845    0.6750 N   0  0  0  0  0  0  0  0  0  0  0  0
    0.8938   -1.7665    0.6476 C   0  0  0  0  0  0  0  0  0  0  0  0
    1.1578   -3.4008    1.0354 S   0  0  0  0  0  0  0  0  0  0  0  0
    2.1688   -1.1527    0.3125 N   0  0  0  0  0  0  0  0  0  0  0  0
    2.3418    0.1828   -0.0559 C   0  0  0  0  0  0  0  0  0  0  0  0
    1.3431    0.9333   -0.1082 O   0  0  0  0  0  0  0  0  0  0  0  0
    3.7061    0.7381   -0.3911 C   0  0  0  0  0  0  0  0  0  0  0  0
    3.5608    2.2102   -0.6949 C   0  0  0  0  0  0  0  0  0  0  0  0
    4.9029    2.8002   -1.0394 C   0  0  0  0  0  0  0  0  0  0  0  0
    2.6241    2.4665   -1.8490 C   0  0  0  0  0  0  0  0  0  0  0  0
   -1.7742    0.5572    0.3493 C   0  0  0  0  0  0  0  0  0  0  0  0
  1  2  1  0
  2  3  2  0
  3  4  1  0
  4  5  2  0
  5  6  1  0
  5  7  1  0
  7  8  1  0
  8  9  1  0
  9 10  2  0
  9 11  1  0
 11 12  1  0
 12 13  2  0
 12 14  1  0
 14 15  1  0
 15 16  1  0
 15 17  1  0
  7 18  2  0
 18  2  1  0
M  END
>  <zinc_id>  (1) 
ZINC000002134976

>  <smiles>  (1) 
Cc1ccc(O)c(NC(=S)NC(=O)CC(C)C)c1

$$$$
