
     RDKit          3D

 19 20  0  0  0  0  0  0  0  0999 V2000
   -6.0309   -1.0831   -0.6090 C   0  0  0  0  0  0  0  0  0  0  0  0
   -4.7017   -0.4685   -0.3577 C   0  0  0  0  0  0  0  0  0  0  0  0
   -4.6880    0.8620    0.0048 C   0  0  0  0  0  0  0  0  0  0  0  0
   -3.4887    1.4945    0.2527 C   0  0  0  0  0  0  0  0  0  0  0  0
   -2.3054    0.7886    0.1359 C   0  0  0  0  0  0  0  0  0  0  0  0
   -2.3106   -0.5413   -0.2260 C   0  0  0  0  0  0  0  0  0  0  0  0
   -1.0786   -1.2418   -0.3383 N   0  0  0  0  0  0  0  0  0  0  0  0
    0.1461   -0.5869   -0.0825 C   0  0  0  0  0  0  0  0  0  0  0  0
    0.1609    0.7015    0.2688 N   0  0  0  0  0  0  0  0  0  0  0  0
    1.3143    1.3349    0.5142 C   0  0  0  0  0  0  0  0  0  0  0  0
    1.2093    3.0310    0.9688 Cl  0  0  0  0  0  0  0  0  0  0  0  0
    2.4666    0.6798    0.4093 N   0  0  0  0  0  0  0  0  0  0  0  0
    2.4613   -0.6161    0.0566 C   0  0  0  0  0  0  0  0  0  0  0  0
    3.6932   -1.3614   -0.0679 N   0  0  0  0  0  0  0  0  0  0  0  0
    4.9097   -0.6767    0.1954 C   0  0  0  0  0  0  0  0  0  0  0  0
    5.0464   -0.1103    1.5632 C   0  0  0  0  0  0  0  0  0  0  0  0
    5.4138    0.1852   -0.9050 C   0  0  0  0  0  0  0  0  0  0  0  0
    1.3055   -1.2483   -0.1887 N   0  0  0  0  0  0  0  0  0  0  0  0
   -3.5232   -1.1430   -0.4664 C   0  0  0  0  0  0  0  0  0  0  0  0
  1  2  1  0
  2  3  2  0
  3  4  1  0
  4  5  2  0
  5  6  1  0
  6  7  1  0
  7  8  1  0
  8  9  2  0
  9 10  1  0
 10 11  1  0
 10 12  2  0
 12 13  1  0
 13 14  1  0
 14 15  1  0
 15 16  1  0
 15 17  1  0
 13 18  2  0
  6 19  2  0
 19  2  1  0
 18  8  1  0
M  END
>  <zinc_id>  (1) 
ZINC000000247015

>  <smiles>  (1) 
Cc1cccc(Nc2nc(Cl)nc(NC(C)C)n2)c1

$$$$
