
     RDKit          3D

 20 21  0  0  0  0  0  0  0  0999 V2000
    5.9255   -0.1399   -0.8900 C   0  0  0  0  0  0  0  0  0  0  0  0
    4.8047   -0.9316   -0.2205 C   0  0  0  0  0  0  0  0  0  0  0  0
    3.6517   -0.0976   -0.2293 O   0  0  0  0  0  0  0  0  0  0  0  0
    2.4454   -0.5010    0.3013 C   0  0  0  0  0  0  0  0  0  0  0  0
    2.3126   -1.6245    0.8164 O   0  0  0  0  0  0  0  0  0  0  0  0
    1.2549    0.3982    0.2762 C   0  0  0  0  0  0  0  0  0  0  0  0
    0.1510   -0.0047    0.7762 C   0  0  0  0  0  0  0  0  0  0  0  0
    0.0631   -1.3829    1.3622 C   0  0  0  0  0  0  0  0  0  0  0  0
   -1.0783    0.9112    0.9972 C   0  0  2  0  0  0  0  0  0  0  0  0
   -2.2435   -0.0826    0.4890 C   0  0  0  0  0  0  0  0  0  0  0  0
   -3.3482   -0.1073    1.3326 C   0  0  0  0  0  0  0  0  0  0  0  0
   -4.3834   -0.9311    0.9654 C   0  0  0  0  0  0  0  0  0  0  0  0
   -4.3160   -1.6922   -0.1886 C   0  0  0  0  0  0  0  0  0  0  0  0
   -3.1859   -1.6149   -0.9762 C   0  0  0  0  0  0  0  0  0  0  0  0
   -2.1058   -0.7843   -0.6349 C   0  0  0  0  0  0  0  0  0  0  0  0
   -0.6894   -0.7121   -1.6567 Cl  0  0  0  0  0  0  0  0  0  0  0  0
   -1.0582    1.8972   -0.1273 N   0  0  0  0  0  0  0  0  0  0  0  0
    0.1549    2.3487   -0.6378 C   0  0  0  0  0  0  0  0  0  0  0  0
    0.2903    3.4370   -1.2931 O   0  0  0  0  0  0  0  0  0  0  0  0
    1.3547    1.6146   -0.4622 N   0  0  0  0  0  0  0  0  0  0  0  0
  1  2  1  0
  2  3  1  0
  3  4  1  0
  4  5  2  0
  4  6  1  0
  6  7  2  0
  7  8  1  0
  7  9  1  0
  9 10  1  6
 10 11  2  0
 11 12  1  0
 12 13  2  0
 13 14  1  0
 14 15  2  0
 15 16  1  0
  9 17  1  0
 17 18  1  0
 18 19  2  0
 18 20  1  0
 20  6  1  0
 15 10  1  0
M  END
>  <zinc_id>  (1) 
ZINC000000339977

>  <smiles>  (1) 
CCOC(=O)C1=C(C)[C@H](c2ccccc2Cl)NC(=O)N1

$$$$
