
     RDKit          3D

 20 22  0  0  0  0  0  0  0  0999 V2000
   -4.2848    3.1768    1.4555 C   0  0  0  0  0  0  0  0  0  0  0  0
   -4.2051    2.5202    0.1825 O   0  0  0  0  0  0  0  0  0  0  0  0
   -3.2367    1.5611   -0.0383 C   0  0  0  0  0  0  0  0  0  0  0  0
   -2.3094    1.1723    0.8895 C   0  0  0  0  0  0  0  0  0  0  0  0
   -1.3624    0.2175    0.6370 C   0  0  0  0  0  0  0  0  0  0  0  0
   -1.2591   -0.4342   -0.5675 C   0  0  0  0  0  0  0  0  0  0  0  0
   -0.2686   -1.4280   -0.8930 C   0  0  0  0  0  0  0  0  0  0  0  0
   -0.5917   -2.3628   -1.7032 O   0  0  0  0  0  0  0  0  0  0  0  0
    1.0956   -1.3834   -0.3123 C   0  0  0  0  0  0  0  0  0  0  0  0
    1.9331   -2.4725   -0.6053 C   0  0  0  0  0  0  0  0  0  0  0  0
    1.6292   -3.6660   -1.3539 N   0  0  0  0  0  0  0  0  0  0  0  0
    3.4043   -2.0693    0.1324 S   0  0  0  0  0  0  0  0  0  0  0  0
    2.9915   -0.5790    0.7916 C   0  0  0  0  0  0  0  0  0  0  0  0
    1.6791   -0.4096    0.4190 C   0  0  0  0  0  0  0  0  0  0  0  0
    1.0813    0.9219    0.8733 C   0  0  0  0  0  0  0  0  0  0  0  0
    1.9875    2.0608    0.5127 C   0  0  0  0  0  0  0  0  0  0  0  0
    3.4352    1.7871    0.8104 C   0  0  0  0  0  0  0  0  0  0  0  0
    3.6420    0.5179    1.6112 C   0  0  0  0  0  0  0  0  0  0  0  0
   -2.2092   -0.0377   -1.5233 C   0  0  0  0  0  0  0  0  0  0  0  0
   -3.1517    0.9068   -1.2825 C   0  0  0  0  0  0  0  0  0  0  0  0
  1  2  1  0
  2  3  1  0
  3  4  2  0
  4  5  1  0
  5  6  2  0
  6  7  1  0
  7  8  2  0
  7  9  1  0
  9 10  2  0
 10 11  1  0
 10 12  1  0
 12 13  1  0
 13 14  2  0
 14 15  1  0
 15 16  1  0
 16 17  1  0
 17 18  1  0
  6 19  1  0
 19 20  2  0
 20  3  1  0
 14  9  1  0
 18 13  1  0
M  END
>  <zinc_id>  (1) 
ZINC000000224610

>  <smiles>  (1) 
COc1ccc(C(=O)c2c(N)sc3c2CCCC3)cc1

$$$$
