
     RDKit          3D

 19 20  0  0  0  0  0  0  0  0999 V2000
    3.4235    2.8049   -0.0425 O   0  0  0  0  0  0  0  0  0  0  0  0
    3.5147    1.8250    0.6996 N   0  0  0  0  0  4  0  0  0  0  0  0
    4.6537    1.6044    1.4079 O   0  0  0  0  0  1  0  0  0  0  0  0
    2.4332    0.9266    0.8140 C   0  0  0  0  0  0  0  0  0  0  0  0
    2.4140   -0.2348    0.1907 C   0  0  0  0  0  0  0  0  0  0  0  0
    3.4999   -0.6529   -0.6455 N   0  0  0  0  0  0  0  0  0  0  0  0
    3.7037   -2.0348   -1.0100 C   0  0  0  0  0  0  0  0  0  0  0  0
    2.5731   -2.9256   -0.5799 C   0  0  0  0  0  0  0  0  0  0  0  0
    1.2299   -2.2463   -0.5450 C   0  0  0  0  0  0  0  0  0  0  0  0
    1.3211   -1.0950    0.3155 N   0  0  0  0  0  0  0  0  0  0  0  0
    0.2807   -0.8543    1.2689 C   0  0  0  0  0  0  0  0  0  0  0  0
   -0.9536   -0.4687    0.4658 C   0  0  0  0  0  0  0  0  0  0  0  0
   -2.1021   -0.2172    1.4110 C   0  0  0  0  0  0  0  0  0  0  0  0
   -3.2569    0.1758    0.5523 C   0  0  0  0  0  0  0  0  0  0  0  0
   -4.1208   -0.7374   -0.0002 C   0  0  0  0  0  0  0  0  0  0  0  0
   -5.1899   -0.3250   -0.7983 C   0  0  0  0  0  0  0  0  0  0  0  0
   -5.3923    1.0010   -1.0412 C   0  0  0  0  0  0  0  0  0  0  0  0
   -4.5357    1.9396   -0.4927 C   0  0  0  0  0  0  0  0  0  0  0  0
   -3.4964    1.5145    0.2834 C   0  0  0  0  0  0  0  0  0  0  0  0
  1  2  2  0
  2  3  1  0
  2  4  1  0
  4  5  2  3
  5  6  1  0
  6  7  1  0
  7  8  1  0
  8  9  1  0
  9 10  1  0
 10 11  1  0
 11 12  1  0
 12 13  1  0
 13 14  1  0
 14 15  2  0
 15 16  1  0
 16 17  2  0
 17 18  1  0
 18 19  2  0
 10  5  1  0
 19 14  1  0
M  CHG  2   2   1   3  -1
M  END
>  <zinc_id>  (1) 
ZINC000004107371

>  <smiles>  (1) 
O=[N+]([O-])C=C1NCCCN1CCCc1ccccc1

$$$$
