
     RDKit          3D

 20 21  0  0  0  0  0  0  0  0999 V2000
   -5.2981   -1.5314    0.2564 C   0  0  0  0  0  0  0  0  0  0  0  0
   -5.0627   -0.0277    0.1872 C   0  0  0  0  0  0  0  0  0  0  0  0
   -5.7985    0.6843    1.2715 C   0  0  0  0  0  0  0  0  0  0  0  0
   -5.5278    0.4480   -1.1564 C   0  0  0  0  0  0  0  0  0  0  0  0
   -3.5778    0.1754    0.2817 C   0  0  0  0  0  0  0  0  0  0  0  0
   -2.9906    0.9202    1.2795 C   0  0  0  0  0  0  0  0  0  0  0  0
   -1.6061    1.0647    1.2989 C   0  0  0  0  0  0  0  0  0  0  0  0
   -0.7674    0.4951    0.3603 C   0  0  0  0  0  0  0  0  0  0  0  0
    0.6781    0.6485    0.3685 C   0  0  0  0  0  0  0  0  0  0  0  0
    1.2636    1.7555    0.3221 O   0  0  0  0  0  0  0  0  0  0  0  0
    1.4583   -0.5263    0.4321 N   0  0  0  0  0  0  0  0  0  0  0  0
    2.8641   -0.5946    0.4490 C   0  0  0  0  0  0  0  0  0  0  0  0
    3.3915   -1.8795    0.6134 C   0  0  0  0  0  0  0  0  0  0  0  0
    4.7481   -2.0919    0.6470 C   0  0  0  0  0  0  0  0  0  0  0  0
    5.5631   -0.9940    0.5139 C   0  0  0  0  0  0  0  0  0  0  0  0
    5.0788    0.2988    0.3488 C   0  0  0  0  0  0  0  0  0  0  0  0
    5.9972    1.3364    0.2234 O   0  0  0  0  0  0  0  0  0  0  0  0
    3.7150    0.4695    0.3197 C   0  0  0  0  0  0  0  0  0  0  0  0
   -1.3718   -0.2520   -0.6385 C   0  0  0  0  0  0  0  0  0  0  0  0
   -2.7567   -0.3989   -0.6626 C   0  0  0  0  0  0  0  0  0  0  0  0
  1  2  1  0
  2  3  1  0
  2  4  1  0
  2  5  1  0
  5  6  2  0
  6  7  1  0
  7  8  2  0
  8  9  1  0
  9 10  2  0
  9 11  1  0
 11 12  1  0
 12 13  2  0
 13 14  1  0
 14 15  2  0
 15 16  1  0
 16 17  1  0
 16 18  2  0
  8 19  1  0
 19 20  2  0
 20  5  1  0
 18 12  1  0
M  END
>  <zinc_id>  (1) 
ZINC000000363836

>  <smiles>  (1) 
CC(C)(C)c1ccc(C(=O)Nc2cccc(O)c2)cc1

$$$$
