
     RDKit          3D

 27 30  0  0  0  0  0  0  0  0999 V2000
    1.8938    0.5078    0.6753 O   0  0  0  0  0  0  0  0  0  0  0  0
    1.6729    1.0922   -0.4449 C   0  0  0  0  0  0  0  0  0  0  0  0
    0.2540    0.8065   -1.0220 C   0  0  0  0  0  0  0  0  0  0  0  0
   -0.3987   -0.1432   -0.2515 N   0  0  0  0  0  0  0  0  0  0  0  0
   -0.8714    0.1276    1.0376 C   0  0  0  0  0  0  0  0  0  0  0  0
   -0.1947   -0.9748    1.8109 C   0  0  0  0  0  0  0  0  0  0  0  0
   -0.7673   -2.2728    0.8825 C   0  0  1  0  0  0  0  0  0  0  0  0
   -2.2757   -1.6222    0.8231 C   0  0  0  0  0  0  0  0  0  0  0  0
   -3.0036   -1.5545    1.9690 N   0  0  0  0  0  0  0  0  0  0  0  0
   -4.0810   -0.9378    1.6007 O   0  0  0  0  0  0  0  0  0  0  0  0
   -4.0548   -0.6256    0.3275 C   0  0  0  0  0  0  0  0  0  0  0  0
   -5.0929    0.0860   -0.3745 C   0  0  0  0  0  0  0  0  0  0  0  0
   -5.2158    0.1897   -1.7548 C   0  0  0  0  0  0  0  0  0  0  0  0
   -6.3662    0.9855   -1.9988 C   0  0  0  0  0  0  0  0  0  0  0  0
   -6.8421    1.2944   -0.7514 C   0  0  0  0  0  0  0  0  0  0  0  0
   -6.0910    0.7635    0.1861 O   0  0  0  0  0  0  0  0  0  0  0  0
   -2.8920   -1.0822   -0.1213 N   0  0  0  0  0  0  0  0  0  0  0  0
   -0.2757   -1.5017   -0.5291 C   0  0  0  0  0  0  0  0  0  0  0  0
    2.6158    1.8477   -1.0242 N   0  0  0  0  0  0  0  0  0  0  0  0
    3.9620    2.2759   -0.8223 C   0  0  0  0  0  0  0  0  0  0  0  0
    4.6518    1.0503   -0.2251 C   0  0  0  0  0  0  0  0  0  0  0  0
    4.5518    0.7556    1.0767 C   0  0  0  0  0  0  0  0  0  0  0  0
    5.3372   -0.3325    1.5922 C   0  0  0  0  0  0  0  0  0  0  0  0
    6.1727   -1.0408    0.7563 C   0  0  0  0  0  0  0  0  0  0  0  0
    6.2814   -0.7287   -0.6256 C   0  0  0  0  0  0  0  0  0  0  0  0
    5.5045    0.3147   -1.0518 C   0  0  0  0  0  0  0  0  0  0  0  0
    5.5252    0.7195   -2.4148 F   0  0  0  0  0  0  0  0  0  0  0  0
  1  2  2  0
  2  3  1  0
  3  4  1  0
  4  5  1  0
  5  6  1  0
  6  7  1  0
  7  8  1  6
  8  9  2  0
  9 10  1  0
 10 11  1  0
 11 12  1  0
 12 13  2  0
 13 14  1  0
 14 15  2  0
 15 16  1  0
 11 17  2  0
  7 18  1  0
  2 19  1  0
 19 20  1  0
 20 21  1  0
 21 22  2  0
 22 23  1  0
 23 24  2  0
 24 25  1  0
 25 26  2  0
 26 27  1  0
 18  4  1  0
 26 21  1  0
 17  8  1  0
 16 12  1  0
M  END
>  <zinc_id>  (1) 
ZINC000000012150

>  <smiles>  (1) 
O=C(CN1CC[C@@H](c2noc(-c3ccco3)n2)C1)NCc1ccccc1F

$$$$
