
     RDKit          3D

 20 22  0  0  0  0  0  0  0  0999 V2000
    0.6498    2.6976    1.5266 C   0  0  0  0  0  0  0  0  0  0  0  0
    0.1170    1.3201    1.8510 C   0  0  0  0  0  0  0  0  0  0  0  0
   -0.4240    0.7113    0.6337 N   0  0  0  0  0  0  0  0  0  0  0  0
   -1.7153    0.8653    0.2697 C   0  0  0  0  0  0  0  0  0  0  0  0
   -1.8977    0.1746   -0.9083 C   0  0  0  0  0  0  0  0  0  0  0  0
   -0.6748   -0.3891   -1.2242 C   0  0  0  0  0  0  0  0  0  0  0  0
   -0.4330   -1.2163   -2.4183 C   0  0  0  0  0  0  0  0  0  0  0  0
    0.2391   -0.0482   -0.2551 C   0  0  0  0  0  0  0  0  0  0  0  0
    1.6464   -0.4212   -0.1827 C   0  0  0  0  0  0  0  0  0  0  0  0
    2.2643   -1.2008   -1.1246 C   0  0  0  0  0  0  0  0  0  0  0  0
    3.6019   -1.5415   -1.0339 C   0  0  0  0  0  0  0  0  0  0  0  0
    4.3729   -1.1026    0.0227 C   0  0  0  0  0  0  0  0  0  0  0  0
    5.7256   -1.4474    0.1140 O   0  0  0  0  0  0  0  0  0  0  0  0
    3.7577   -0.3170    0.9755 C   0  0  0  0  0  0  0  0  0  0  0  0
    2.4182    0.0174    0.8740 C   0  0  0  0  0  0  0  0  0  0  0  0
   -3.2533    0.1941   -1.5154 C   0  0  0  0  0  0  0  0  0  0  0  0
   -4.2382    0.0395   -0.4232 C   0  0  0  0  0  0  0  0  0  0  0  0
   -5.1777   -0.7029   -0.5868 O   0  0  0  0  0  0  0  0  0  0  0  0
   -4.1235    0.7563    0.8657 C   0  0  0  0  0  0  0  0  0  0  0  0
   -2.8554    1.6108    0.9118 C   0  0  0  0  0  0  0  0  0  0  0  0
  1  2  1  0
  2  3  1  0
  3  4  1  0
  4  5  2  0
  5  6  1  0
  6  7  1  0
  6  8  2  0
  8  9  1  0
  9 10  2  0
 10 11  1  0
 11 12  2  0
 12 13  1  0
 12 14  1  0
 14 15  2  0
  5 16  1  0
 16 17  1  0
 17 18  2  0
 17 19  1  0
 19 20  1  0
  8  3  1  0
 15  9  1  0
 20  4  1  0
M  END
>  <zinc_id>  (1) 
ZINC000000008680

>  <smiles>  (1) 
CCn1c2c(c(C)c1-c1ccc(O)cc1)CC(=O)CC2

$$$$
