
     RDKit          3D

 19 21  0  0  0  0  0  0  0  0999 V2000
   -2.7789    1.8159    1.1308 C   0  0  0  0  0  0  0  0  0  0  0  0
   -2.5929    0.4346    1.7214 C   0  0  0  0  0  0  0  0  0  0  0  0
   -2.2020    0.5928    3.1695 C   0  0  0  0  0  0  0  0  0  0  0  0
   -3.9183   -0.2851    1.6101 C   0  0  0  0  0  0  0  0  0  0  0  0
   -4.2195   -0.6936    0.2255 C   0  0  0  0  0  0  0  0  0  0  0  0
   -5.3803   -1.0050   -0.1245 O   0  0  0  0  0  0  0  0  0  0  0  0
   -3.1455   -0.7320   -0.7393 C   0  0  0  0  0  0  0  0  0  0  0  0
   -1.8887   -0.5467   -0.4318 C   0  0  0  0  0  0  0  0  0  0  0  0
   -0.6202   -0.6102   -1.6851 S   0  0  0  0  0  0  0  0  0  0  0  0
    0.9938   -0.3218   -0.9742 C   0  0  0  0  0  0  0  0  0  0  0  0
    1.8719   -1.2071   -0.4724 N   0  0  0  0  0  0  0  0  0  0  0  0
    2.9853   -0.5998   -0.0270 C   0  0  0  0  0  0  0  0  0  0  0  0
    4.1629   -1.0025    0.5593 C   0  0  0  0  0  0  0  0  0  0  0  0
    5.1427   -0.0991    0.9105 C   0  0  0  0  0  0  0  0  0  0  0  0
    4.9437    1.2436    0.6707 C   0  0  0  0  0  0  0  0  0  0  0  0
    3.7695    1.6710    0.0833 C   0  0  0  0  0  0  0  0  0  0  0  0
    2.7911    0.7431   -0.2646 C   0  0  0  0  0  0  0  0  0  0  0  0
    1.5746    0.8815   -0.8397 N   0  0  0  0  0  0  0  0  0  0  0  0
   -1.4892   -0.2797    0.9653 C   0  0  0  0  0  0  0  0  0  0  0  0
  1  2  1  0
  2  3  1  0
  2  4  1  0
  4  5  1  0
  5  6  2  0
  5  7  1  0
  7  8  2  0
  8  9  1  0
  9 10  1  0
 10 11  2  0
 11 12  1  0
 12 13  2  0
 13 14  1  0
 14 15  2  0
 15 16  1  0
 16 17  2  0
 17 18  1  0
  8 19  1  0
 19  2  1  0
 18 10  1  0
 17 12  1  0
M  END
>  <zinc_id>  (1) 
ZINC000000161107

>  <smiles>  (1) 
CC1(C)CC(=O)C=C(Sc2nc3ccccc3[nH]2)C1

$$$$
