
     RDKit          3D

 20 21  0  0  0  0  0  0  0  0999 V2000
   -1.8268   -3.0408   -1.6657 C   0  0  0  0  0  0  0  0  0  0  0  0
   -1.4369   -1.8303   -1.0255 O   0  0  0  0  0  0  0  0  0  0  0  0
   -2.3344   -0.8760   -0.6043 C   0  0  0  0  0  0  0  0  0  0  0  0
   -3.6898   -1.0118   -0.7670 C   0  0  0  0  0  0  0  0  0  0  0  0
   -4.5877   -0.0436   -0.3387 C   0  0  0  0  0  0  0  0  0  0  0  0
   -4.0968    1.0795    0.2643 C   0  0  0  0  0  0  0  0  0  0  0  0
   -5.0167    2.1643    0.7501 C   0  0  0  0  0  0  0  0  0  0  0  0
   -2.7434    1.2368    0.4377 C   0  0  0  0  0  0  0  0  0  0  0  0
   -1.8539    0.2517    0.0003 C   0  0  0  0  0  0  0  0  0  0  0  0
   -0.4737    0.5002    0.2218 N   0  0  0  0  0  0  0  0  0  0  0  0
    0.0295    1.6534    0.8408 C   0  0  0  0  0  0  0  0  0  0  0  0
   -0.8029    2.5168    1.2205 O   0  0  0  0  0  0  0  0  0  0  0  0
    1.7478    1.9923    1.1315 S   0  0  0  0  0  0  0  0  0  0  0  0
    2.8007    0.6772    0.5381 C   0  0  0  0  0  0  0  0  0  0  0  0
    3.3023    0.6733   -0.7530 C   0  0  0  0  0  0  0  0  0  0  0  0
    4.1165   -0.3355   -1.2250 C   0  0  0  0  0  0  0  0  0  0  0  0
    4.4643   -1.3837   -0.4270 C   0  0  0  0  0  0  0  0  0  0  0  0
    5.2717   -2.4296   -0.8212 O   0  0  0  0  0  0  0  0  0  0  0  0
    3.9723   -1.4065    0.8826 C   0  0  0  0  0  0  0  0  0  0  0  0
    3.1578   -0.3878    1.3396 C   0  0  0  0  0  0  0  0  0  0  0  0
  1  2  1  0
  2  3  1  0
  3  4  2  0
  4  5  1  0
  5  6  2  0
  6  7  1  0
  6  8  1  0
  8  9  2  0
  9 10  1  0
 10 11  1  0
 11 12  2  0
 11 13  1  0
 13 14  1  0
 14 15  2  0
 15 16  1  0
 16 17  2  0
 17 18  1  0
 17 19  1  0
 19 20  2  0
  9  3  1  0
 20 14  1  0
M  END
>  <zinc_id>  (1) 
ZINC000000399189

>  <smiles>  (1) 
COc1ccc(C)cc1NC(=O)Sc1ccc(O)cc1

$$$$
