
     RDKit          3D

 19 20  0  0  0  0  0  0  0  0999 V2000
    6.4608    0.1630   -0.3147 C   0  0  0  0  0  0  0  0  0  0  0  0
    5.7170   -0.0007    0.8781 O   0  0  0  0  0  0  0  0  0  0  0  0
    4.3306   -0.0478    0.7673 C   0  0  0  0  0  0  0  0  0  0  0  0
    3.6849    0.0590   -0.4484 C   0  0  0  0  0  0  0  0  0  0  0  0
    2.2825    0.0056   -0.5088 C   0  0  0  0  0  0  0  0  0  0  0  0
    1.5478   -0.1530    0.6422 C   0  0  0  0  0  0  0  0  0  0  0  0
    0.0795   -0.2084    0.5747 C   0  0  0  0  0  0  0  0  0  0  0  0
   -0.4290   -0.0823   -0.7628 N   0  0  0  0  0  0  0  0  0  0  0  0
   -1.8544   -0.1222   -0.9536 C   0  0  0  0  0  0  0  0  0  0  0  0
   -2.4062   -0.0064   -2.2157 C   0  0  0  0  0  0  0  0  0  0  0  0
   -3.7626   -0.0409   -2.4285 C   0  0  0  0  0  0  0  0  0  0  0  0
   -4.6346   -0.1958   -1.3633 C   0  0  0  0  0  0  0  0  0  0  0  0
   -6.5010   -0.2400   -1.6863 Br  0  0  0  0  0  0  0  0  0  0  0  0
   -4.0727   -0.3103   -0.1096 C   0  0  0  0  0  0  0  0  0  0  0  0
   -5.0359   -0.4778    1.0348 C   0  0  0  0  0  0  0  0  0  0  0  0
   -2.7128   -0.2755    0.1017 C   0  0  0  0  0  0  0  0  0  0  0  0
    2.1945   -0.2577    1.8399 C   0  0  0  0  0  0  0  0  0  0  0  0
    1.5179   -0.4185    3.0329 O   0  0  0  0  0  0  0  0  0  0  0  0
    3.5939   -0.2067    1.9201 C   0  0  0  0  0  0  0  0  0  0  0  0
  1  2  1  0
  2  3  1  0
  3  4  2  0
  4  5  1  0
  5  6  2  0
  6  7  1  0
  7  8  1  0
  8  9  1  0
  9 10  2  0
 10 11  1  0
 11 12  2  0
 12 13  1  0
 12 14  1  0
 14 15  1  0
 14 16  2  0
  6 17  1  0
 17 18  1  0
 17 19  2  0
 19  3  1  0
 16  9  1  0
M  END
>  <zinc_id>  (1) 
ZINC000000041939

>  <smiles>  (1) 
COc1ccc(CNc2ccc(Br)c(C)c2)c(O)c1

$$$$
