
     RDKit          3D

 21 23  0  0  0  0  0  0  0  0999 V2000
    5.6471   -0.8055   -1.9216 C   0  0  0  0  0  0  0  0  0  0  0  0
    4.9755    0.1055   -1.5683 C   0  0  0  0  0  0  0  0  0  0  0  0
    4.1605    1.2329   -1.1539 C   0  0  0  0  0  0  0  0  0  0  0  0
    2.8586    0.8921   -0.7830 O   0  0  0  0  0  0  0  0  0  0  0  0
    2.5168    0.0328    0.2386 C   0  0  0  0  0  0  0  0  0  0  0  0
    3.4568   -0.4825    0.8849 O   0  0  0  0  0  0  0  0  0  0  0  0
    1.1328   -0.3032    0.6015 C   0  0  0  0  0  0  0  0  0  0  0  0
    0.9269   -1.1784    1.6461 C   0  0  0  0  0  0  0  0  0  0  0  0
    2.0633   -1.7673    2.3865 C   0  0  0  0  0  0  0  0  0  0  0  0
   -0.3412   -1.4800    1.9709 N   0  0  0  0  0  0  0  0  0  0  0  0
   -1.3968   -0.9375    1.2886 C   0  0  0  0  0  0  0  0  0  0  0  0
   -3.0795   -1.1186    1.4567 S   0  0  0  0  0  0  0  0  0  0  0  0
   -3.5931   -0.0801    0.1945 C   0  0  0  0  0  0  0  0  0  0  0  0
   -2.4177    0.3791   -0.3220 C   0  0  0  0  0  0  0  0  0  0  0  0
   -1.2754   -0.0641    0.2436 C   0  0  0  0  0  0  0  0  0  0  0  0
    0.0676    0.2357   -0.0768 C   0  0  0  0  0  0  0  0  0  0  0  0
    0.4165    1.1242   -1.1332 N   0  0  0  0  0  0  0  0  0  0  0  0
   -2.4976    1.3590   -1.5029 C   0  0  0  0  0  0  0  0  0  0  0  0
   -3.7726    1.1259   -2.2335 C   0  0  0  0  0  0  0  0  0  0  0  0
   -4.8893    1.4351   -1.2386 C   0  0  0  0  0  0  0  0  0  0  0  0
   -4.9590    0.2950   -0.3009 C   0  0  0  0  0  0  0  0  0  0  0  0
  1  2  3  0
  2  3  1  0
  3  4  1  0
  4  5  1  0
  5  6  2  0
  5  7  1  0
  7  8  2  0
  8  9  1  0
  8 10  1  0
 10 11  2  0
 11 12  1  0
 12 13  1  0
 13 14  2  0
 14 15  1  0
 15 16  2  0
 16 17  1  0
 14 18  1  0
 18 19  1  0
 19 20  1  0
 20 21  1  0
 16  7  1  0
 15 11  1  0
 21 13  1  0
M  END
>  <zinc_id>  (1) 
ZINC000001554458

>  <smiles>  (1) 
C#CCOC(=O)c1c(C)nc2sc3c(c2c1N)CCCC3

$$$$
