
     RDKit          3D

 21 23  0  0  0  0  0  0  0  0999 V2000
    3.0435    1.8946   -0.8683 C   0  0  0  0  0  0  0  0  0  0  0  0
    2.5494    1.1762    0.5138 C   0  0  2  0  0  0  0  0  0  0  0  0
    3.9868    0.5746    0.9822 C   0  0  0  0  0  0  0  0  0  0  0  0
    4.8932    0.3818   -0.1195 C   0  0  0  0  0  0  0  0  0  0  0  0
    4.3591   -0.4755   -1.2098 C   0  0  0  0  0  0  0  0  0  0  0  0
    2.8933   -0.5808   -1.2864 C   0  0  0  0  0  0  0  0  0  0  0  0
    2.0561   -0.2005   -0.2012 C   0  0  1  0  0  0  0  0  0  0  0  0
    1.8038   -1.1363    0.8437 N   0  0  0  0  0  0  0  0  0  0  0  0
    0.5414   -1.7467    0.6402 C   0  0  0  0  0  0  0  0  0  0  0  0
    0.0945   -2.8153    1.1808 O   0  0  0  0  0  0  0  0  0  0  0  0
   -0.1611   -0.9399   -0.2968 N   0  0  0  0  0  0  0  0  0  0  0  0
   -1.4800   -1.1235   -0.8363 C   0  0  0  0  0  0  0  0  0  0  0  0
   -2.5240   -0.4549   -0.0173 C   0  0  0  0  0  0  0  0  0  0  0  0
   -2.2525    0.2601    1.1306 C   0  0  0  0  0  0  0  0  0  0  0  0
   -3.2467    0.8726    1.8736 C   0  0  0  0  0  0  0  0  0  0  0  0
   -4.5528    0.7814    1.4781 C   0  0  0  0  0  0  0  0  0  0  0  0
   -4.8610    0.0629    0.3176 C   0  0  0  0  0  0  0  0  0  0  0  0
   -3.8452   -0.5382   -0.4037 C   0  0  0  0  0  0  0  0  0  0  0  0
   -4.2862   -1.4249   -1.8479 Cl  0  0  0  0  0  0  0  0  0  0  0  0
    0.6834    0.1472   -0.6485 C   0  0  0  0  0  0  0  0  0  0  0  0
    0.3049    1.1833   -1.2248 O   0  0  0  0  0  0  0  0  0  0  0  0
  2  1  1  6
  2  3  1  0
  3  4  1  0
  4  5  1  0
  5  6  1  0
  7  6  1  6
  7  8  1  0
  8  9  1  0
  9 10  2  0
  9 11  1  0
 11 12  1  0
 12 13  1  0
 13 14  2  0
 14 15  1  0
 15 16  2  0
 16 17  1  0
 17 18  2  0
 18 19  1  0
 11 20  1  0
 20 21  2  0
  7  2  1  0
 18 13  1  0
 20  7  1  0
M  END
>  <zinc_id>  (1) 
ZINC000003396904

>  <smiles>  (1) 
C[C@@H]1CCCC[C@@]12NC(=O)N(Cc1ccccc1Cl)C2=O

$$$$
