
     RDKit          3D

 19 20  0  0  0  0  0  0  0  0999 V2000
    1.9646    1.5947   -0.1306 C   0  0  0  0  0  0  0  0  0  0  0  0
    2.2264    0.3028   -0.2048 C   0  0  0  0  0  0  0  0  0  0  0  0
    2.9962   -0.1339   -1.4241 C   0  0  0  0  0  0  0  0  0  0  0  0
    4.2914   -0.7499   -0.8829 C   0  0  0  0  0  0  0  0  0  0  0  0
    5.0218    0.3141   -0.0986 C   0  0  0  0  0  0  0  0  0  0  0  0
    3.8213   -1.8363    0.0914 C   0  0  0  0  0  0  0  0  0  0  0  0
    1.8175   -0.6082    0.7875 N   0  0  0  0  0  0  0  0  0  0  0  0
    0.7064   -0.3108    1.5631 N   0  0  0  0  0  0  0  0  0  0  0  0
   -0.3965    0.3399    0.9516 C   0  0  0  0  0  0  0  0  0  0  0  0
   -0.5706    1.6894    0.9864 N   0  0  0  0  0  0  0  0  0  0  0  0
   -1.5974    2.3041    0.4171 N   0  0  0  0  0  0  0  0  0  0  0  0
   -2.5439    1.6107   -0.2407 C   0  0  0  0  0  0  0  0  0  0  0  0
   -3.9254    2.3817   -1.0134 Cl  0  0  0  0  0  0  0  0  0  0  0  0
   -2.4115    0.2412   -0.3040 C   0  0  0  0  0  0  0  0  0  0  0  0
   -3.3686   -0.5193   -0.9707 C   0  0  0  0  0  0  0  0  0  0  0  0
   -3.2725   -1.8884   -1.0529 C   0  0  0  0  0  0  0  0  0  0  0  0
   -2.1861   -2.5148   -0.4506 C   0  0  0  0  0  0  0  0  0  0  0  0
   -1.2233   -1.8052    0.2149 C   0  0  0  0  0  0  0  0  0  0  0  0
   -1.3500   -0.4119    0.2822 C   0  0  0  0  0  0  0  0  0  0  0  0
  1  2  2  0
  2  3  1  0
  3  4  1  0
  4  5  1  0
  4  6  1  0
  2  7  1  0
  7  8  1  0
  8  9  1  0
  9 10  2  0
 10 11  1  0
 11 12  2  0
 12 13  1  0
 12 14  1  0
 14 15  2  0
 15 16  1  0
 16 17  2  0
 17 18  1  0
 18 19  2  0
 19  9  1  0
 19 14  1  0
M  END
>  <zinc_id>  (1) 
ZINC000002685706

>  <smiles>  (1) 
C=C(CC(C)C)NNc1nnc(Cl)c2ccccc12

$$$$
