
     RDKit          3D

 18 20  0  0  0  0  0  0  0  0999 V2000
   -1.8566    2.5568    0.4209 O   0  0  0  0  0  0  0  0  0  0  0  0
   -1.4931    1.4457   -0.0782 C   0  0  0  0  0  0  0  0  0  0  0  0
   -0.6456    1.2174   -1.1861 N   0  0  0  0  0  0  0  0  0  0  0  0
   -0.5045   -0.1997   -1.3973 C   0  0  1  0  0  0  0  0  0  0  0  0
   -1.0266   -0.4762   -2.6694 O   0  0  0  0  0  0  0  0  0  0  0  0
    1.2339   -0.7111   -1.3197 S   0  0  0  0  0  0  0  0  0  0  0  0
    1.8241   -0.4580    0.3671 C   0  0  0  0  0  0  0  0  0  0  0  0
    3.2687   -0.8625    0.5324 C   0  0  0  0  0  0  0  0  0  0  0  0
    4.1569    0.1213   -0.1959 C   0  0  0  0  0  0  0  0  0  0  0  0
    3.9452    1.5041    0.3286 C   0  0  0  0  0  0  0  0  0  0  0  0
    2.5235    1.9487    0.3181 C   0  0  0  0  0  0  0  0  0  0  0  0
    1.5525    0.9340    0.8683 C   0  0  0  0  0  0  0  0  0  0  0  0
   -1.3194   -0.8343   -0.3583 C   0  0  0  0  0  0  0  0  0  0  0  0
   -1.6084   -2.1479   -0.0163 C   0  0  0  0  0  0  0  0  0  0  0  0
   -2.4257   -2.4890    1.0362 C   0  0  0  0  0  0  0  0  0  0  0  0
   -2.9961   -1.4969    1.8018 C   0  0  0  0  0  0  0  0  0  0  0  0
   -2.7297   -0.1917    1.4890 C   0  0  0  0  0  0  0  0  0  0  0  0
   -1.8991    0.1394    0.4188 C   0  0  0  0  0  0  0  0  0  0  0  0
  1  2  2  0
  2  3  1  0
  3  4  1  0
  4  5  1  6
  4  6  1  0
  6  7  1  0
  7  8  1  0
  8  9  1  0
  9 10  1  0
 10 11  1  0
 11 12  1  0
  4 13  1  0
 13 14  2  0
 14 15  1  0
 15 16  2  0
 16 17  1  0
 17 18  2  0
 18  2  1  0
 12  7  1  0
 18 13  1  0
M  END
>  <zinc_id>  (1) 
ZINC000002569321

>  <smiles>  (1) 
O=C1N[C@@](O)(SC2CCCCC2)c2ccccc21

$$$$
