
     RDKit          3D

 19 21  0  0  0  0  0  0  0  0999 V2000
    5.0720   -1.9376    0.7971 C   0  0  0  0  0  0  0  0  0  0  0  0
    4.5411   -0.7994    0.2223 O   0  0  0  0  0  0  0  0  0  0  0  0
    5.1848   -0.4391   -0.9442 C   0  0  0  0  0  0  0  0  0  0  0  0
    4.5844    0.7945   -1.5370 C   0  0  0  0  0  0  0  0  0  0  0  0
    3.2333    0.6289   -1.8521 N   0  0  0  0  0  0  0  0  0  0  0  0
    2.1568    0.4727   -0.8971 C   0  0  0  0  0  0  0  0  0  0  0  0
    0.8715    0.2866   -1.1779 N   0  0  0  0  0  0  0  0  0  0  0  0
    0.0197    0.1796   -0.2136 C   0  0  0  0  0  0  0  0  0  0  0  0
   -1.4348   -0.0298   -0.4426 C   0  0  0  0  0  0  0  0  0  0  0  0
   -2.0369   -0.1323   -1.6682 C   0  0  0  0  0  0  0  0  0  0  0  0
   -3.3528   -0.3161   -1.4739 N   0  0  0  0  0  0  0  0  0  0  0  0
   -3.5981   -0.3324   -0.1582 C   0  0  0  0  0  0  0  0  0  0  0  0
   -4.7793   -0.4902    0.5337 C   0  0  0  0  0  0  0  0  0  0  0  0
   -4.7640   -0.4686    1.9196 C   0  0  0  0  0  0  0  0  0  0  0  0
   -3.5720   -0.2902    2.5892 C   0  0  0  0  0  0  0  0  0  0  0  0
   -2.3851   -0.1315    1.9099 C   0  0  0  0  0  0  0  0  0  0  0  0
   -2.4138   -0.1552    0.5110 C   0  0  0  0  0  0  0  0  0  0  0  0
    0.5030    0.2662    1.0714 C   0  0  0  0  0  0  0  0  0  0  0  0
    2.1701    0.4987    0.8106 S   0  0  0  0  0  0  0  0  0  0  0  0
  1  2  1  0
  2  3  1  0
  3  4  1  0
  4  5  1  0
  5  6  1  0
  6  7  2  0
  7  8  1  0
  8  9  1  0
  9 10  2  0
 10 11  1  0
 11 12  1  0
 12 13  2  0
 13 14  1  0
 14 15  2  0
 15 16  1  0
 16 17  2  0
  8 18  2  0
 18 19  1  0
 19  6  1  0
 17  9  1  0
 17 12  1  0
M  END
>  <zinc_id>  (1) 
ZINC000002628040

>  <smiles>  (1) 
COCCNc1nc(-c2c[nH]c3ccccc23)cs1

$$$$
