
     RDKit          3D

 21 24  0  0  0  0  0  0  0  0999 V2000
    5.2030    0.0766   -0.8615 C   0  0  0  0  0  0  0  0  0  0  0  0
    5.2344    0.7949    0.2515 C   0  0  0  0  0  0  0  0  0  0  0  0
    4.0250    1.1275    1.0434 C   0  0  0  0  0  0  0  0  0  0  0  0
    2.8554    0.5353    0.3841 N   0  0  0  0  0  0  0  0  0  0  0  0
    2.3248   -0.7224    0.6008 C   0  0  0  0  0  0  0  0  0  0  0  0
    2.7050   -1.6214    1.4105 O   0  0  0  0  0  0  0  0  0  0  0  0
    1.1013   -0.9660   -0.3239 C   0  0  1  0  0  0  0  0  0  0  0  0
   -0.0155   -0.5428    0.8238 C   0  0  0  0  0  0  0  0  0  0  0  0
   -1.2492   -0.3020    0.0438 C   0  0  0  0  0  0  0  0  0  0  0  0
   -1.2892    0.1674   -1.2287 C   0  0  0  0  0  0  0  0  0  0  0  0
   -2.5733    0.2593   -1.6118 N   0  0  0  0  0  0  0  0  0  0  0  0
   -3.3982   -0.1443   -0.6079 C   0  0  0  0  0  0  0  0  0  0  0  0
   -4.7803   -0.2390   -0.4975 C   0  0  0  0  0  0  0  0  0  0  0  0
   -5.3311   -0.6962    0.6799 C   0  0  0  0  0  0  0  0  0  0  0  0
   -4.5267   -1.0566    1.7380 C   0  0  0  0  0  0  0  0  0  0  0  0
   -3.1618   -0.9507    1.5953 C   0  0  0  0  0  0  0  0  0  0  0  0
   -2.5597   -0.4953    0.4284 C   0  0  0  0  0  0  0  0  0  0  0  0
   -0.0370    0.4873   -1.9613 C   0  0  0  0  0  0  0  0  0  0  0  0
    1.0498    0.3811   -1.0302 N   0  0  0  0  0  0  0  0  0  0  0  0
    2.0771    1.1898   -0.6013 C   0  0  0  0  0  0  0  0  0  0  0  0
    2.3464    2.7174   -1.1747 S   0  0  0  0  0  0  0  0  0  0  0  0
  1  2  2  0
  2  3  1  0
  3  4  1  0
  4  5  1  0
  5  6  2  0
  5  7  1  0
  7  8  1  1
  8  9  1  0
  9 10  2  0
 10 11  1  0
 11 12  1  0
 12 13  2  0
 13 14  1  0
 14 15  2  0
 15 16  1  0
 16 17  2  0
 10 18  1  0
 18 19  1  0
 19 20  1  0
 20 21  2  0
 20  4  1  0
 19  7  1  0
 17  9  1  0
 17 12  1  0
M  END
>  <zinc_id>  (1) 
ZINC000000486064

>  <smiles>  (1) 
C=CCN1C(=O)[C@H]2Cc3c([nH]c4ccccc34)CN2C1=S

$$$$
