
     RDKit          3D

 21 22  0  0  0  0  0  0  0  0999 V2000
    3.7441   -0.6142   -2.2865 C   0  0  0  0  0  0  0  0  0  0  0  0
    4.2928   -0.4631   -0.9043 C   0  0  0  0  0  0  0  0  0  0  0  0
    5.3359    0.6288   -0.8089 C   0  0  0  0  0  0  0  0  0  0  0  0
    3.2271   -0.3035    0.1071 C   0  0  0  0  0  0  0  0  0  0  0  0
    1.8786   -0.2961   -0.1965 C   0  0  0  0  0  0  0  0  0  0  0  0
    0.9124   -0.1420    0.7971 C   0  0  0  0  0  0  0  0  0  0  0  0
   -0.5033   -0.1401    0.4305 C   0  0  0  0  0  0  0  0  0  0  0  0
   -1.3592   -0.0003    1.3370 O   0  0  0  0  0  0  0  0  0  0  0  0
   -0.9086   -0.2989   -0.9693 C   0  0  0  0  0  0  0  0  0  0  0  0
   -2.3977   -0.2614   -1.0663 C   0  0  0  0  0  0  0  0  0  0  0  0
   -3.1654   -1.4035   -0.9706 C   0  0  0  0  0  0  0  0  0  0  0  0
   -4.5519   -1.3511   -1.0631 C   0  0  0  0  0  0  0  0  0  0  0  0
   -5.2115   -0.1534   -1.2541 C   0  0  0  0  0  0  0  0  0  0  0  0
   -6.5590   -0.1079   -1.3433 F   0  0  0  0  0  0  0  0  0  0  0  0
   -4.4401    0.9880   -1.3495 C   0  0  0  0  0  0  0  0  0  0  0  0
   -3.0651    0.9307   -1.2571 C   0  0  0  0  0  0  0  0  0  0  0  0
    1.3106    0.0062    2.1089 C   0  0  0  0  0  0  0  0  0  0  0  0
    0.3040    0.1561    3.0573 O   0  0  0  0  0  0  0  0  0  0  0  0
    2.6459    0.0025    2.4389 C   0  0  0  0  0  0  0  0  0  0  0  0
    3.5821   -0.1524    1.4313 C   0  0  0  0  0  0  0  0  0  0  0  0
    4.9284   -0.1564    1.7613 O   0  0  0  0  0  0  0  0  0  0  0  0
  1  2  1  0
  2  3  1  0
  2  4  1  0
  4  5  2  0
  5  6  1  0
  6  7  1  0
  7  8  2  0
  7  9  1  0
  9 10  1  0
 10 11  2  0
 11 12  1  0
 12 13  2  0
 13 14  1  0
 13 15  1  0
 15 16  2  0
  6 17  2  0
 17 18  1  0
 17 19  1  0
 19 20  2  0
 20 21  1  0
 20  4  1  0
 16 10  1  0
M  END
>  <zinc_id>  (1) 
ZINC000001516515

>  <smiles>  (1) 
CC(C)c1cc(C(=O)Cc2ccc(F)cc2)c(O)cc1O

$$$$
