
     RDKit          3D

 19 19  0  0  0  0  0  0  0  0999 V2000
    5.7181   -2.0361    0.6082 C   0  0  0  0  0  0  0  0  0  0  0  0
    5.1884   -0.6543    0.5992 C   0  0  0  0  0  0  0  0  0  0  0  0
    5.9636    0.3133    0.7149 O   0  0  0  0  0  0  0  0  0  0  0  0
    3.7594   -0.4175    0.4551 C   0  0  0  0  0  0  0  0  0  0  0  0
    3.2104    0.8408    0.4396 C   0  0  0  0  0  0  0  0  0  0  0  0
    1.8413    1.0572    0.3013 C   0  0  0  0  0  0  0  0  0  0  0  0
    0.9835   -0.0143    0.1734 C   0  0  0  0  0  0  0  0  0  0  0  0
   -0.4205    0.1564    0.0298 N   0  0  0  0  0  0  0  0  0  0  0  0
   -1.0079    1.4467    0.0114 C   0  0  0  0  0  0  0  0  0  0  0  0
   -0.0368    2.7462    0.1593 S   0  0  0  0  0  0  0  0  0  0  0  0
   -2.4130    1.5707   -0.1339 N   0  0  0  0  0  0  0  0  0  0  0  0
   -3.2308    0.4267   -0.2601 C   0  0  0  0  0  0  0  0  0  0  0  0
   -2.6318   -0.6966   -0.2349 O   0  0  0  0  0  0  0  0  0  0  0  0
   -4.7082    0.4983   -0.4149 C   0  0  0  0  0  0  0  0  0  0  0  0
   -5.2308   -0.9062   -0.5186 C   0  0  0  0  0  0  0  0  0  0  0  0
   -6.7342   -0.8462   -0.6765 C   0  0  0  0  0  0  0  0  0  0  0  0
   -4.6435   -1.5417   -1.7645 C   0  0  0  0  0  0  0  0  0  0  0  0
    1.5189   -1.2812    0.1871 C   0  0  0  0  0  0  0  0  0  0  0  0
    2.8739   -1.4859    0.3243 C   0  0  0  0  0  0  0  0  0  0  0  0
  1  2  1  0
  2  3  2  0
  2  4  1  0
  4  5  2  0
  5  6  1  0
  6  7  2  0
  7  8  1  0
  8  9  1  0
  9 10  2  0
  9 11  1  0
 11 12  1  0
 12 13  2  0
 12 14  1  0
 14 15  1  0
 15 16  1  0
 15 17  1  0
  7 18  1  0
 18 19  2  0
 19  4  1  0
M  END
>  <zinc_id>  (1) 
ZINC000000342061

>  <smiles>  (1) 
CC(=O)c1ccc(NC(=S)NC(=O)CC(C)C)cc1

$$$$
