
     RDKit          3D

 21 23  0  0  0  0  0  0  0  0999 V2000
    0.3748    3.7370    0.2212 C   0  0  0  0  0  0  0  0  0  0  0  0
    1.0069    2.3979    0.1443 C   0  0  0  0  0  0  0  0  0  0  0  0
    0.1091    1.5038   -0.8961 C   0  0  2  0  0  0  0  0  0  0  0  0
   -1.1747    1.5953   -0.1139 O   0  0  0  0  0  0  0  0  0  0  0  0
   -2.0764    0.5935   -0.0844 C   0  0  0  0  0  0  0  0  0  0  0  0
   -3.4625    0.7966    0.0629 C   0  0  0  0  0  0  0  0  0  0  0  0
   -4.3286   -0.2436    0.0872 C   0  0  0  0  0  0  0  0  0  0  0  0
   -5.6923   -0.0571    0.2313 O   0  0  0  0  0  0  0  0  0  0  0  0
   -3.8871   -1.5494   -0.0317 C   0  0  0  0  0  0  0  0  0  0  0  0
   -2.5335   -1.7953   -0.1784 C   0  0  0  0  0  0  0  0  0  0  0  0
   -1.9718   -3.1545   -0.3122 C   0  0  0  0  0  0  0  0  0  0  0  0
   -1.6921   -0.7049   -0.1975 C   0  0  0  0  0  0  0  0  0  0  0  0
   -0.2839   -0.9567   -0.3544 N   0  0  0  0  0  0  0  0  0  0  0  0
    0.6286    0.1129   -0.3906 C   0  0  0  0  0  0  0  0  0  0  0  0
    1.8746   -0.0637   -0.0363 C   0  0  0  0  0  0  0  0  0  0  0  0
    2.3712   -1.3765    0.4437 C   0  0  0  0  0  0  0  0  0  0  0  0
    3.6038   -1.5984    0.7965 C   0  0  0  0  0  0  0  0  0  0  0  0
    4.5179   -0.4604    0.6983 C   0  0  0  0  0  0  0  0  0  0  0  0
    5.7146   -0.6367    1.0301 O   0  0  0  0  0  0  0  0  0  0  0  0
    4.0689    0.8469    0.2312 C   0  0  0  0  0  0  0  0  0  0  0  0
    2.8324    1.0135   -0.1073 C   0  0  0  0  0  0  0  0  0  0  0  0
  1  2  1  0
  3  2  1  1
  3  4  1  0
  4  5  1  0
  5  6  2  0
  6  7  1  0
  7  8  1  0
  7  9  2  0
  9 10  1  0
 10 11  1  0
 10 12  2  0
 12 13  1  0
 13 14  1  0
 14 15  2  3
 15 16  1  0
 16 17  2  0
 17 18  1  0
 18 19  2  0
 18 20  1  0
 20 21  2  0
 14  3  1  0
 21 15  1  0
 12  5  1  0
M  END
>  <zinc_id>  (1) 
ZINC000003950321

>  <smiles>  (1) 
CC[C@@H]1Oc2cc(O)cc(C)c2NC1=C1C=CC(=O)C=C1

$$$$
