
     RDKit          3D

 19 21  0  0  0  0  0  0  0  0999 V2000
    5.5550    1.8024   -0.1997 C   0  0  0  0  0  0  0  0  0  0  0  0
    4.2097    1.1650   -0.0012 C   0  0  0  0  0  0  0  0  0  0  0  0
    3.5854    0.6299   -1.0983 C   0  0  0  0  0  0  0  0  0  0  0  0
    2.3591    0.0094   -1.0534 C   0  0  0  0  0  0  0  0  0  0  0  0
    1.7253   -0.0719    0.1955 C   0  0  0  0  0  0  0  0  0  0  0  0
    0.4275   -0.7055    0.2635 C   0  0  0  0  0  0  0  0  0  0  0  0
   -0.1516   -1.1991   -0.7364 O   0  0  0  0  0  0  0  0  0  0  0  0
   -0.3148   -0.8189    1.5005 N   0  0  0  0  0  0  0  0  0  0  0  0
   -1.5862   -1.4419    1.4568 N   0  0  0  0  0  0  0  0  0  0  0  0
   -2.5047   -1.1048    0.3926 C   0  0  0  0  0  0  0  0  0  0  0  0
   -2.5998    0.0435   -0.2136 C   0  0  0  0  0  0  0  0  0  0  0  0
   -2.7681    1.3040   -0.9445 C   0  0  0  0  0  0  0  0  0  0  0  0
   -3.9381    1.3034   -1.5435 C   0  0  0  0  0  0  0  0  0  0  0  0
   -4.6372    0.0219   -1.2453 C   0  0  0  0  0  0  0  0  0  0  0  0
   -3.3254   -0.9342   -1.3177 C   0  0  2  0  0  0  0  0  0  0  0  0
   -3.6251   -1.9062   -0.1284 C   0  0  0  0  0  0  0  0  0  0  0  0
    2.3559    0.4653    1.2919 C   0  0  0  0  0  0  0  0  0  0  0  0
    1.6441    0.3507    2.5927 C   0  0  0  0  0  0  0  0  0  0  0  0
    3.5891    1.0871    1.2252 C   0  0  0  0  0  0  0  0  0  0  0  0
  1  2  1  0
  2  3  2  0
  3  4  1  0
  4  5  2  0
  5  6  1  0
  6  7  2  0
  6  8  1  0
  8  9  1  0
  9 10  1  0
 10 11  2  0
 11 12  1  0
 12 13  2  0
 13 14  1  0
 15 14  1  1
 15 16  1  0
  5 17  1  0
 17 18  1  0
 17 19  2  0
 19  2  1  0
 16 10  1  0
 15 11  1  0
M  END
>  <zinc_id>  (1) 
ZINC000003356061

>  <smiles>  (1) 
Cc1ccc(C(=O)NNC2=C3C=CC[C@@H]3C2)c(C)c1

$$$$
