
     RDKit          3D

 20 23  0  0  0  0  0  0  0  0999 V2000
    0.0005   -1.4936    1.4720 O   0  0  0  0  0  0  0  0  0  0  0  0
   -1.1209   -1.0246    1.0661 C   0  0  0  0  0  0  0  0  0  0  0  0
   -2.4104   -1.3759    1.5610 N   0  0  0  0  0  0  0  0  0  0  0  0
   -3.3923   -0.6259    0.8459 C   0  0  0  0  0  0  0  0  0  0  0  0
   -4.7580   -0.5944    0.9333 N   0  0  0  0  0  0  0  0  0  0  0  0
   -5.5115    0.1913    0.1571 C   0  0  0  0  0  0  0  0  0  0  0  0
   -4.9206    1.0204   -0.7854 C   0  0  0  0  0  0  0  0  0  0  0  0
   -3.5305    1.0211   -0.9096 C   0  0  0  0  0  0  0  0  0  0  0  0
   -2.7940    0.1796   -0.0732 C   0  0  0  0  0  0  0  0  0  0  0  0
   -1.3382   -0.0429    0.0319 C   0  0  0  0  0  0  0  0  0  0  0  0
   -0.4582    0.5652   -0.7045 C   0  0  0  0  0  0  0  0  0  0  0  0
    0.9665    0.3355   -0.5907 C   0  0  0  0  0  0  0  0  0  0  0  0
    1.6944   -0.8151   -0.4886 C   0  0  0  0  0  0  0  0  0  0  0  0
    3.0339   -0.4472   -0.4033 C   0  0  0  0  0  0  0  0  0  0  0  0
    3.1098    0.9160   -0.4519 C   0  0  0  0  0  0  0  0  0  0  0  0
    1.8678    1.3657   -0.5628 N   0  0  0  0  0  0  0  0  0  0  0  0
    4.3820    1.7006   -0.3842 C   0  0  0  0  0  0  0  0  0  0  0  0
    5.5815    0.7955   -0.5119 C   0  0  0  0  0  0  0  0  0  0  0  0
    5.3281   -0.4099    0.3857 C   0  0  0  0  0  0  0  0  0  0  0  0
    4.2701   -1.2615   -0.2826 C   0  0  0  0  0  0  0  0  0  0  0  0
  1  2  2  0
  2  3  1  0
  3  4  1  0
  4  5  2  0
  5  6  1  0
  6  7  2  0
  7  8  1  0
  8  9  2  0
  9 10  1  0
 10 11  2  3
 11 12  1  0
 12 13  2  0
 13 14  1  0
 14 15  2  0
 15 16  1  0
 15 17  1  0
 17 18  1  0
 18 19  1  0
 19 20  1  0
 10  2  1  0
 16 12  1  0
  9  4  1  0
 20 14  1  0
M  END
>  <zinc_id>  (1) 
ZINC000003955270

>  <smiles>  (1) 
O=C1Nc2ncccc2C1=Cc1cc2c([nH]1)CCCC2

$$$$
