
     RDKit          3D

 20 22  0  0  0  0  0  0  0  0999 V2000
   -3.8202    1.2583   -2.0463 C   0  0  0  0  0  0  0  0  0  0  0  0
   -4.0343    1.0962   -0.6673 O   0  0  0  0  0  0  0  0  0  0  0  0
   -3.0710    0.5437    0.1858 C   0  0  0  0  0  0  0  0  0  0  0  0
   -1.8500    0.1289   -0.3053 C   0  0  0  0  0  0  0  0  0  0  0  0
   -0.9046   -0.4124    0.5268 C   0  0  0  0  0  0  0  0  0  0  0  0
    0.4248   -0.8827    0.0943 C   0  0  0  0  0  0  0  0  0  0  0  0
    1.4949   -0.4601    0.9546 N   0  0  0  0  0  0  0  0  0  0  0  0
    1.3729   -0.2059    2.3636 C   0  0  0  0  0  0  0  0  0  0  0  0
    2.6528   -0.3527    0.1453 C   0  0  0  0  0  0  0  0  0  0  0  0
    4.0203   -0.3088    0.4271 C   0  0  0  0  0  0  0  0  0  0  0  0
    4.9009   -0.1974   -0.6191 C   0  0  0  0  0  0  0  0  0  0  0  0
    4.4477   -0.1304   -1.9168 C   0  0  0  0  0  0  0  0  0  0  0  0
    3.1095   -0.1705   -2.2346 C   0  0  0  0  0  0  0  0  0  0  0  0
    2.2308   -0.2833   -1.1656 C   0  0  0  0  0  0  0  0  0  0  0  0
    0.8170   -0.3460   -1.1931 N   0  0  0  0  0  0  0  0  0  0  0  0
   -0.0585    0.0447   -2.2809 C   0  0  0  0  0  0  0  0  0  0  0  0
   -1.2315   -0.5218    1.8721 C   0  0  0  0  0  0  0  0  0  0  0  0
   -2.4546   -0.1066    2.3661 C   0  0  0  0  0  0  0  0  0  0  0  0
   -3.4014    0.4373    1.5228 C   0  0  0  0  0  0  0  0  0  0  0  0
   -4.6455    0.8696    1.9705 O   0  0  0  0  0  0  0  0  0  0  0  0
  1  2  1  0
  2  3  1  0
  3  4  2  0
  4  5  1  0
  5  6  1  0
  6  7  1  0
  7  8  1  0
  7  9  1  0
  9 10  2  0
 10 11  1  0
 11 12  2  0
 12 13  1  0
 13 14  2  0
 14 15  1  0
 15 16  1  0
  5 17  2  0
 17 18  1  0
 18 19  2  0
 19 20  1  0
 19  3  1  0
 15  6  1  0
 14  9  1  0
M  END
>  <zinc_id>  (1) 
ZINC000000127005

>  <smiles>  (1) 
COc1cc(C2N(C)c3ccccc3N2C)ccc1O

$$$$
