
     RDKit          3D

 20 22  0  0  0  0  0  0  0  0999 V2000
   -1.3925   -3.5856    1.7620 C   0  0  0  0  0  0  0  0  0  0  0  0
   -1.1256   -2.2466    1.3294 O   0  0  0  0  0  0  0  0  0  0  0  0
   -1.5239   -1.7843    0.0942 C   0  0  0  0  0  0  0  0  0  0  0  0
   -2.1314   -2.5267   -0.6834 O   0  0  0  0  0  0  0  0  0  0  0  0
   -1.2010   -0.3873   -0.2600 C   0  0  0  0  0  0  0  0  0  0  0  0
   -1.5263    0.1327   -1.3769 C   0  0  0  0  0  0  0  0  0  0  0  0
   -2.2784   -0.7903   -2.3230 C   0  0  0  0  0  0  0  0  0  0  0  0
   -1.1877    1.4266   -1.7044 N   0  0  0  0  0  0  0  0  0  0  0  0
   -0.4699    2.2532   -0.8448 C   0  0  0  0  0  0  0  0  0  0  0  0
    0.0194    3.5343   -0.9170 N   0  0  0  0  0  0  0  0  0  0  0  0
    0.6632    3.7697    0.2246 C   0  0  0  0  0  0  0  0  0  0  0  0
    0.5889    2.6777    1.0022 N   0  0  0  0  0  0  0  0  0  0  0  0
   -0.1307    1.7776    0.2720 N   0  0  0  0  0  0  0  0  0  0  0  0
   -0.4425    0.4014    0.8978 C   0  0  2  0  0  0  0  0  0  0  0  0
    0.9944   -0.2442    0.8305 C   0  0  0  0  0  0  0  0  0  0  0  0
    2.0548   -0.4283    2.1454 S   0  0  0  0  0  0  0  0  0  0  0  0
    3.3734   -1.1716    1.3131 C   0  0  0  0  0  0  0  0  0  0  0  0
    2.9093   -1.2325    0.0569 C   0  0  0  0  0  0  0  0  0  0  0  0
    1.6652   -0.7487   -0.2013 C   0  0  0  0  0  0  0  0  0  0  0  0
    1.1415   -0.8269   -1.6172 C   0  0  0  0  0  0  0  0  0  0  0  0
  1  2  1  0
  2  3  1  0
  3  4  2  0
  3  5  1  0
  5  6  2  0
  6  7  1  0
  6  8  1  0
  8  9  1  0
  9 10  2  0
 10 11  1  0
 11 12  2  0
 12 13  1  0
 13 14  1  0
 14 15  1  6
 15 16  1  0
 16 17  1  0
 17 18  2  0
 18 19  1  0
 19 20  1  0
 14  5  1  0
 19 15  2  0
 13  9  1  0
M  END
>  <zinc_id>  (1) 
ZINC000004111523

>  <smiles>  (1) 
COC(=O)C1=C(C)Nc2ncnn2[C@@H]1c1sccc1C

$$$$
