
     RDKit          3D

 21 24  0  0  0  0  0  0  0  0999 V2000
   -2.6222   -3.4610    0.5219 N   0  0  0  0  0  0  0  0  0  0  0  0
   -2.8422   -2.0863    0.2266 C   0  0  0  0  0  0  0  0  0  0  0  0
   -4.0507   -1.4780    0.5156 C   0  0  0  0  0  0  0  0  0  0  0  0
   -4.1963   -0.1322    0.2001 C   0  0  0  0  0  0  0  0  0  0  0  0
   -3.1945    0.6107   -0.3826 C   0  0  0  0  0  0  0  0  0  0  0  0
   -1.9723   -0.0120   -0.6728 C   0  0  0  0  0  0  0  0  0  0  0  0
   -0.9994    0.7478   -1.2506 O   0  0  0  0  0  0  0  0  0  0  0  0
   -0.0572    1.5302   -0.5651 C   0  0  0  0  0  0  0  0  0  0  0  0
   -0.4308    2.8219   -0.3284 N   0  0  0  0  0  0  0  0  0  0  0  0
    0.3072    3.7227    0.3016 C   0  0  0  0  0  0  0  0  0  0  0  0
    1.5180    3.3255    0.7387 N   0  0  0  0  0  0  0  0  0  0  0  0
    1.9345    2.0449    0.5234 C   0  0  0  0  0  0  0  0  0  0  0  0
    3.3802    1.2217    0.9047 S   0  0  0  0  0  0  0  0  0  0  0  0
    3.0198   -0.2962    0.2371 C   0  0  0  0  0  0  0  0  0  0  0  0
    1.7565   -0.1159   -0.2744 C   0  0  0  0  0  0  0  0  0  0  0  0
    1.1860    1.0945   -0.1281 C   0  0  0  0  0  0  0  0  0  0  0  0
    1.2798   -1.3862   -0.9605 C   0  0  0  0  0  0  0  0  0  0  0  0
    1.3460   -2.4580    0.1309 C   0  0  0  0  0  0  0  0  0  0  0  0
    2.7775   -2.7487    0.5143 C   0  0  0  0  0  0  0  0  0  0  0  0
    3.7145   -1.6329    0.1071 C   0  0  0  0  0  0  0  0  0  0  0  0
   -1.8543   -1.3127   -0.3594 C   0  0  0  0  0  0  0  0  0  0  0  0
  1  2  1  0
  2  3  2  0
  3  4  1  0
  4  5  2  0
  5  6  1  0
  6  7  1  0
  7  8  1  0
  8  9  2  0
  9 10  1  0
 10 11  2  0
 11 12  1  0
 12 13  1  0
 13 14  1  0
 14 15  2  0
 15 16  1  0
 15 17  1  0
 17 18  1  0
 18 19  1  0
 19 20  1  0
  6 21  2  0
 21  2  1  0
 16  8  1  0
 16 12  2  0
 20 14  1  0
M  END
>  <zinc_id>  (1) 
ZINC000001506209

>  <smiles>  (1) 
Nc1cccc(Oc2ncnc3sc4c(c23)CCCC4)c1

$$$$
