
     RDKit          3D

 20 22  0  0  0  0  0  0  0  0999 V2000
    6.5320   -1.5880   -0.3152 C   0  0  0  0  0  0  0  0  0  0  0  0
    5.9728   -0.3106   -0.0096 O   0  0  0  0  0  0  0  0  0  0  0  0
    4.5768   -0.3094   -0.0618 C   0  0  0  0  0  0  0  0  0  0  0  0
    3.8778   -1.5031   -0.3980 C   0  0  0  0  0  0  0  0  0  0  0  0
    2.5606   -1.6022   -0.4678 C   0  0  0  0  0  0  0  0  0  0  0  0
    1.7568   -0.5250   -0.1674 C   0  0  0  0  0  0  0  0  0  0  0  0
    0.4878   -0.2365   -0.2419 N   0  0  0  0  0  0  0  0  0  0  0  0
    0.2317    1.0503   -0.0053 C   0  0  0  0  0  0  0  0  0  0  0  0
   -1.2559    1.9528   -0.0745 S   0  0  0  0  0  0  0  0  0  0  0  0
   -2.6180    1.3694   -0.9208 C   0  0  0  0  0  0  0  0  0  0  0  0
   -3.4752    0.2715   -0.4517 C   0  0  0  0  0  0  0  0  0  0  0  0
   -4.8265    0.7729   -0.1988 C   0  0  0  0  0  0  0  0  0  0  0  0
   -5.0890    2.2377   -0.3903 C   0  0  0  0  0  0  0  0  0  0  0  0
   -5.5290   -0.2514    0.1686 N   0  0  0  0  0  0  0  0  0  0  0  0
   -4.8203   -1.3451    0.1950 O   0  0  0  0  0  0  0  0  0  0  0  0
   -3.5725   -1.0072   -0.1781 C   0  0  0  0  0  0  0  0  0  0  0  0
   -2.4926   -2.0607   -0.2467 C   0  0  0  0  0  0  0  0  0  0  0  0
    1.4742    1.6394    0.2703 N   0  0  0  0  0  0  0  0  0  0  0  0
    2.4245    0.6807    0.1502 C   0  0  0  0  0  0  0  0  0  0  0  0
    3.7842    0.7645    0.1961 C   0  0  0  0  0  0  0  0  0  0  0  0
  1  2  1  0
  2  3  1  0
  3  4  2  0
  4  5  1  0
  5  6  2  0
  6  7  1  0
  7  8  2  0
  8  9  1  0
  9 10  1  0
 10 11  1  0
 11 12  1  0
 12 13  1  0
 12 14  2  0
 14 15  1  0
 15 16  1  0
 16 17  1  0
  8 18  1  0
 18 19  1  0
 19 20  2  0
 20  3  1  0
 19  6  1  0
 16 11  2  0
M  END
>  <zinc_id>  (1) 
ZINC000004484684

>  <smiles>  (1) 
COc1ccc2nc(SCc3c(C)noc3C)[nH]c2c1

$$$$
