
     RDKit          3D

 19 21  0  0  0  0  0  0  0  0999 V2000
    3.1482   -1.8590   -1.3482 N   0  0  0  0  0  0  0  0  0  0  0  0
    3.5737   -0.7320   -0.5481 C   0  0  0  0  0  0  0  0  0  0  0  0
    4.9904    0.2064   -0.6661 S   0  0  0  0  0  0  0  0  0  0  0  0
    4.6826    1.2793    0.6216 C   0  0  0  0  0  0  0  0  0  0  0  0
    3.4771    0.8359    1.0730 C   0  0  0  0  0  0  0  0  0  0  0  0
    2.9214   -0.1775    0.4814 N   0  0  0  0  0  4  0  0  0  0  0  0
    1.6047   -0.6921    0.9444 C   0  0  0  0  0  0  0  0  0  0  0  0
    0.5098   -0.0152    0.2396 C   0  0  0  0  0  0  0  0  0  0  0  0
    0.7381    0.8642   -0.6202 O   0  0  0  0  0  0  0  0  0  0  0  0
   -0.8260   -0.3690    0.5434 N   0  0  0  0  0  0  0  0  0  0  0  0
   -1.1144   -1.3944    1.5453 C   0  0  0  0  0  0  0  0  0  0  0  0
   -2.5712   -1.5944    1.7561 C   0  0  0  0  0  0  0  0  0  0  0  0
   -3.3262   -1.6894    0.4235 C   0  0  0  0  0  0  0  0  0  0  0  0
   -3.1767   -0.3476   -0.1944 C   0  0  0  0  0  0  0  0  0  0  0  0
   -4.2439    0.2768   -0.8339 C   0  0  0  0  0  0  0  0  0  0  0  0
   -3.9753    1.5233   -1.3664 C   0  0  0  0  0  0  0  0  0  0  0  0
   -2.7496    2.1385   -1.2903 C   0  0  0  0  0  0  0  0  0  0  0  0
   -1.7227    1.4940   -0.6534 C   0  0  0  0  0  0  0  0  0  0  0  0
   -1.9400    0.2523   -0.1073 C   0  0  0  0  0  0  0  0  0  0  0  0
  1  2  1  0
  2  3  1  0
  3  4  1  0
  4  5  2  0
  5  6  1  0
  6  7  1  0
  7  8  1  0
  8  9  2  0
  8 10  1  0
 10 11  1  0
 11 12  1  0
 12 13  1  0
 13 14  1  0
 14 15  2  0
 15 16  1  0
 16 17  2  0
 17 18  1  0
 18 19  2  0
  6  2  2  0
 19 10  1  0
 19 14  1  0
M  CHG  1   6   1
M  END
>  <zinc_id>  (1) 
ZINC000003230700

>  <smiles>  (1) 
Nc1scc[n+]1CC(=O)N1CCCc2ccccc21

$$$$
