
     RDKit          3D

 20 22  0  0  0  0  0  0  0  0999 V2000
   -2.9790    3.3913   -0.9974 C   0  0  0  0  0  0  0  0  0  0  0  0
   -3.6767    1.7713   -0.7248 S   0  0  0  0  0  0  0  0  0  0  0  0
   -2.4784    0.5109   -0.3739 C   0  0  0  0  0  0  0  0  0  0  0  0
   -2.9355   -0.7380   -0.1602 N   0  0  0  0  0  0  0  0  0  0  0  0
   -2.0765   -1.7630    0.1220 C   0  0  0  0  0  0  0  0  0  0  0  0
   -0.7253   -1.5519    0.1967 C   0  0  0  0  0  0  0  0  0  0  0  0
   -0.2263   -0.2931   -0.0159 C   0  0  0  0  0  0  0  0  0  0  0  0
    1.2055    0.0040    0.0659 C   0  0  0  0  0  0  0  0  0  0  0  0
    1.6909    0.5584    1.2590 C   0  0  0  0  0  0  0  0  0  0  0  0
    3.0390    0.8528    1.4242 C   0  0  0  0  0  0  0  0  0  0  0  0
    3.9301    0.6018    0.4025 C   0  0  0  0  0  0  0  0  0  0  0  0
    5.2951    0.8595    0.4728 O   0  0  0  0  0  0  0  0  0  0  0  0
    3.4457    0.0567   -0.7724 C   0  0  0  0  0  0  0  0  0  0  0  0
    2.1072   -0.2348   -0.9312 C   0  0  0  0  0  0  0  0  0  0  0  0
   -1.1267    0.7117   -0.2986 C   0  0  0  0  0  0  0  0  0  0  0  0
   -0.6293    2.0336   -0.5181 C   0  0  0  0  0  0  0  0  0  0  0  0
   -0.2185    3.0996   -0.6835 N   0  0  0  0  0  0  0  0  0  0  0  0
   -0.0630   -2.8306    0.5162 C   0  0  0  0  0  0  0  0  0  0  0  0
   -1.1330   -3.8619    0.6446 C   0  0  0  0  0  0  0  0  0  0  0  0
   -2.4454   -3.1784    0.3721 C   0  0  0  0  0  0  0  0  0  0  0  0
  1  2  1  0
  2  3  1  0
  3  4  2  0
  4  5  1  0
  5  6  2  0
  6  7  1  0
  7  8  1  0
  8  9  2  0
  9 10  1  0
 10 11  2  0
 11 12  1  0
 11 13  1  0
 13 14  2  0
  7 15  2  0
 15 16  1  0
 16 17  3  0
  6 18  1  0
 18 19  1  0
 19 20  1  0
 15  3  1  0
 20  5  1  0
 14  8  1  0
M  END
>  <zinc_id>  (1) 
ZINC000000608581

>  <smiles>  (1) 
CSc1nc2c(c(-c3ccc(O)cc3)c1C#N)CCC2

$$$$
