
     RDKit          3D

 19 21  0  0  0  0  0  0  0  0999 V2000
    6.4656   -0.9815   -0.5482 C   0  0  0  0  0  0  0  0  0  0  0  0
    5.4874   -1.5582    0.4488 C   0  0  0  0  0  0  0  0  0  0  0  0
    4.0764   -1.2606   -0.0026 C   0  0  0  0  0  0  0  0  0  0  0  0
    3.8985    0.2403   -0.0880 C   0  0  0  0  0  0  0  0  0  0  0  0
    2.5471    0.5116   -0.5201 N   0  0  0  0  0  0  0  0  0  0  0  0
    1.4554    0.0626    0.2560 C   0  0  0  0  0  0  0  0  0  0  0  0
    1.6866   -0.6095    1.3835 N   0  0  0  0  0  0  0  0  0  0  0  0
    0.6903   -1.0634    2.1661 C   0  0  0  0  0  0  0  0  0  0  0  0
   -0.5882   -0.8335    1.8023 N   0  0  0  0  0  0  0  0  0  0  0  0
   -0.9135   -0.1666    0.6853 C   0  0  0  0  0  0  0  0  0  0  0  0
    0.1397    0.2863   -0.0967 C   0  0  0  0  0  0  0  0  0  0  0  0
   -0.4353    0.9104   -1.1371 N   0  0  0  0  0  0  0  0  0  0  0  0
   -1.7847    0.8711   -1.0463 C   0  0  0  0  0  0  0  0  0  0  0  0
   -2.8021    1.3626   -1.8553 C   0  0  0  0  0  0  0  0  0  0  0  0
   -4.1306    1.1800   -1.5234 C   0  0  0  0  0  0  0  0  0  0  0  0
   -4.4610    0.5006   -0.3734 C   0  0  0  0  0  0  0  0  0  0  0  0
   -5.7737    0.3402   -0.0793 F   0  0  0  0  0  0  0  0  0  0  0  0
   -3.4425    0.0180    0.4206 C   0  0  0  0  0  0  0  0  0  0  0  0
   -2.1155    0.1895    0.1076 C   0  0  0  0  0  0  0  0  0  0  0  0
  1  2  1  0
  2  3  1  0
  3  4  1  0
  4  5  1  0
  5  6  1  0
  6  7  2  0
  7  8  1  0
  8  9  2  0
  9 10  1  0
 10 11  2  0
 11 12  1  0
 12 13  1  0
 13 14  2  0
 14 15  1  0
 15 16  2  0
 16 17  1  0
 16 18  1  0
 18 19  2  0
 11  6  1  0
 19 13  1  0
 19 10  1  0
M  END
>  <zinc_id>  (1) 
ZINC000001792360

>  <smiles>  (1) 
CCCCNc1ncnc2c1[nH]c1ccc(F)cc12

$$$$
