
     RDKit          3D

 24 28  0  0  0  0  0  0  0  0999 V2000
   -0.2995    1.8405   -1.9322 C   0  0  0  0  0  0  0  0  0  0  0  0
   -0.5157    0.2039   -1.9732 C   0  0  1  0  0  0  0  0  0  0  0  0
    0.6926   -0.1947   -1.1351 N   0  0  0  0  0  0  0  0  0  0  0  0
    0.9899   -1.4903   -1.0460 C   0  0  0  0  0  0  0  0  0  0  0  0
    0.3390   -2.3696   -1.6060 O   0  0  0  0  0  0  0  0  0  0  0  0
    2.0655   -1.9175   -0.3052 N   0  0  0  0  0  0  0  0  0  0  0  0
    2.8456   -1.0609    0.3466 C   0  0  0  0  0  0  0  0  0  0  0  0
    3.9432   -1.4810    1.1041 C   0  0  0  0  0  0  0  0  0  0  0  0
    4.7388   -0.5748    1.7720 C   0  0  0  0  0  0  0  0  0  0  0  0
    4.4147    0.7615    1.6674 C   0  0  0  0  0  0  0  0  0  0  0  0
    3.3257    1.1979    0.9177 C   0  0  0  0  0  0  0  0  0  0  0  0
    2.5533    0.2823    0.2657 C   0  0  0  0  0  0  0  0  0  0  0  0
    1.4577    0.6642   -0.4940 C   0  0  0  0  0  0  0  0  0  0  0  0
    1.2125    1.9087   -0.5518 N   0  0  0  0  0  0  0  0  0  0  0  0
   -1.6890    0.2269   -0.8268 C   0  0  0  0  0  0  0  0  0  0  0  0
   -1.1620    0.7799    0.3991 C   0  0  0  0  0  0  0  0  0  0  0  0
   -2.2130    0.7723    1.4355 C   0  0  0  0  0  0  0  0  0  0  0  0
   -3.3812    1.6253    0.9224 C   0  0  0  0  0  0  0  0  0  0  0  0
   -3.8926    1.1091   -0.4087 C   0  0  0  0  0  0  0  0  0  0  0  0
   -4.4234   -0.3039   -0.1308 C   0  0  0  0  0  0  0  0  0  0  0  0
   -3.2577   -1.1985    0.3112 C   0  0  0  0  0  0  0  0  0  0  0  0
   -2.6811   -0.6765    1.6204 C   0  0  0  0  0  0  0  0  0  0  0  0
   -2.2442   -1.1674   -0.7794 C   0  0  0  0  0  0  0  0  0  0  0  0
   -2.8190    1.0629   -1.4474 C   0  0  0  0  0  0  0  0  0  0  0  0
  2  1  1  1
  2  3  1  0
  3  4  1  0
  4  5  2  0
  4  6  1  0
  6  7  1  0
  7  8  2  0
  8  9  1  0
  9 10  2  0
 10 11  1  0
 11 12  2  0
 12 13  1  0
 13 14  2  0
  2 15  1  0
 15 16  1  0
 16 17  1  0
 17 18  1  0
 18 19  1  0
 19 20  1  0
 20 21  1  0
 21 22  1  0
 21 23  1  0
 19 24  1  0
 13  3  1  0
 23 15  1  0
 12  7  1  0
 24 15  1  0
 22 17  1  0
M  END
>  <zinc_id>  (1) 
ZINC000003851020

>  <smiles>  (1) 
C[C@@H](n1c(=O)[nH]c2ccccc2c1=N)C12CC3CC(CC(C3)C1)C2

$$$$
