
     RDKit          3D

 21 22  0  0  0  0  0  0  0  0999 V2000
   -3.6788   -1.6798    2.0409 C   0  0  0  0  0  0  0  0  0  0  0  0
   -3.9024   -0.8035    0.8407 C   0  0  0  0  0  0  0  0  0  0  0  0
   -4.5600    0.4754    1.2028 C   0  0  0  0  0  0  0  0  0  0  0  0
   -4.7347   -1.4843   -0.2186 C   0  0  0  0  0  0  0  0  0  0  0  0
   -2.4542   -0.5213    0.1765 C   0  0  1  0  0  0  0  0  0  0  0  0
   -3.0419    0.4032   -1.0135 C   0  0  0  0  0  0  0  0  0  0  0  0
   -1.8661    1.0331   -1.6736 C   0  0  0  0  0  0  0  0  0  0  0  0
   -1.0903    1.7415   -0.8742 C   0  0  0  0  0  0  0  0  0  0  0  0
    0.0863    2.4339   -1.2754 N   0  0  0  0  0  0  0  0  0  0  0  0
    1.2896    2.1773   -0.6175 N   0  0  0  0  0  0  0  0  0  0  0  0
    1.6890    0.8092   -0.5072 C   0  0  0  0  0  0  0  0  0  0  0  0
    0.9402   -0.2313   -1.0178 C   0  0  0  0  0  0  0  0  0  0  0  0
    1.3531   -1.5371   -0.8947 C   0  0  0  0  0  0  0  0  0  0  0  0
    2.5438   -1.7755   -0.2424 C   0  0  0  0  0  0  0  0  0  0  0  0
    3.3167   -0.7608    0.2796 C   0  0  0  0  0  0  0  0  0  0  0  0
    4.5551   -1.0621    0.9535 N   0  0  0  0  0  4  0  0  0  0  0  0
    4.9259   -2.2282    1.0646 O   0  0  0  0  0  0  0  0  0  0  0  0
    5.3075   -0.0400    1.4644 O   0  0  0  0  0  1  0  0  0  0  0  0
    2.8898    0.5440    0.1485 C   0  0  0  0  0  0  0  0  0  0  0  0
   -1.4767    1.8084    0.5222 C   0  0  0  0  0  0  0  0  0  0  0  0
   -2.0918    0.6979    1.1804 C   0  0  0  0  0  0  0  0  0  0  0  0
  1  2  1  0
  2  3  1  0
  2  4  1  0
  5  2  1  1
  5  6  1  0
  6  7  1  0
  7  8  2  0
  8  9  1  0
  9 10  1  0
 10 11  1  0
 11 12  2  0
 12 13  1  0
 13 14  2  0
 14 15  1  0
 15 16  1  0
 16 17  2  0
 16 18  1  0
 15 19  2  0
  8 20  1  0
 20 21  1  0
 21  5  1  0
 19 11  1  0
M  CHG  2  16   1  18  -1
M  END
>  <zinc_id>  (1) 
ZINC000003243823

>  <smiles>  (1) 
CC(C)(C)[C@H]1CC=C(NNc2cccc([N+](=O)[O-])c2)CC1

$$$$
