
     RDKit          3D

 21 23  0  0  0  0  0  0  0  0999 V2000
    6.7562   -1.1349    0.3241 O   0  0  0  0  0  0  0  0  0  0  0  0
    6.0785   -0.1347    0.6304 N   0  0  0  0  0  4  0  0  0  0  0  0
    6.7303    0.8673    1.3063 O   0  0  0  0  0  1  0  0  0  0  0  0
    4.7033   -0.0116    0.3098 C   0  0  0  0  0  0  0  0  0  0  0  0
    4.0562   -1.0256   -0.3707 C   0  0  0  0  0  0  0  0  0  0  0  0
    2.7222   -0.8921   -0.6747 C   0  0  0  0  0  0  0  0  0  0  0  0
    2.0269    0.2310   -0.3125 C   0  0  0  0  0  0  0  0  0  0  0  0
    0.5668    0.3346   -0.6663 C   0  0  0  0  0  0  0  0  0  0  0  0
   -0.1544   -0.2380    0.4536 N   0  0  0  0  0  0  0  0  0  0  0  0
   -1.5783   -0.2659    0.3763 C   0  0  0  0  0  0  0  0  0  0  0  0
   -2.3408   -0.7985    1.4092 C   0  0  0  0  0  0  0  0  0  0  0  0
   -3.7170   -0.8209    1.3248 C   0  0  0  0  0  0  0  0  0  0  0  0
   -4.3923   -0.3214    0.2239 C   0  0  0  0  0  0  0  0  0  0  0  0
   -3.6491    0.2069   -0.8018 C   0  0  0  0  0  0  0  0  0  0  0  0
   -2.2682    0.2271   -0.7126 C   0  0  0  0  0  0  0  0  0  0  0  0
   -4.3249    0.7090   -1.9081 O   0  0  0  0  0  0  0  0  0  0  0  0
   -5.6893    1.0832   -1.8493 C   0  0  0  0  0  0  0  0  0  0  0  0
   -6.4385   -0.0204   -1.1012 C   0  0  0  0  0  0  0  0  0  0  0  0
   -5.7609   -0.3263    0.1041 O   0  0  0  0  0  0  0  0  0  0  0  0
    2.6695    1.2339    0.3613 C   0  0  0  0  0  0  0  0  0  0  0  0
    4.0037    1.0974    0.6638 C   0  0  0  0  0  0  0  0  0  0  0  0
  1  2  2  0
  2  3  1  0
  2  4  1  0
  4  5  2  0
  5  6  1  0
  6  7  2  0
  7  8  1  0
  8  9  1  0
  9 10  1  0
 10 11  2  0
 11 12  1  0
 12 13  2  0
 13 14  1  0
 14 15  2  0
 14 16  1  0
 16 17  1  0
 17 18  1  0
 18 19  1  0
  7 20  1  0
 20 21  2  0
 21  4  1  0
 15 10  1  0
 19 13  1  0
M  CHG  2   2   1   3  -1
M  END
>  <zinc_id>  (1) 
ZINC000000257180

>  <smiles>  (1) 
O=[N+]([O-])c1ccc(CNc2ccc3c(c2)OCCO3)cc1

$$$$
