
     RDKit          3D

 19 20  0  0  0  0  0  0  0  0999 V2000
    4.8124   -1.1970   -1.1046 C   0  0  0  0  0  0  0  0  0  0  0  0
    3.5119   -0.5381   -0.7990 C   0  0  0  0  0  0  0  0  0  0  0  0
    2.7883    0.1087   -1.7899 C   0  0  0  0  0  0  0  0  0  0  0  0
    1.5842    0.7182   -1.5076 C   0  0  0  0  0  0  0  0  0  0  0  0
    1.0423    0.7157   -0.2330 C   0  0  0  0  0  0  0  0  0  0  0  0
   -0.2720    1.3850    0.0428 C   0  0  0  0  0  0  0  0  0  0  0  0
   -0.1208    2.4298    1.1281 C   0  0  0  0  0  0  0  0  0  0  0  0
    0.7818    3.4165    0.7802 O   0  0  0  0  0  0  0  0  0  0  0  0
   -0.7247    2.0642   -1.2398 C   0  0  0  0  0  0  0  0  0  0  0  0
   -0.8536    1.0505   -2.2183 O   0  0  0  0  0  0  0  0  0  0  0  0
   -1.2637    0.3596    0.3923 C   0  0  0  0  0  0  0  0  0  0  0  0
   -1.8613    0.3702    1.6241 C   0  0  0  0  0  0  0  0  0  0  0  0
   -2.8064   -0.5973    1.9865 C   0  0  0  0  0  0  0  0  0  0  0  0
   -3.1093   -1.5645    1.0455 C   0  0  0  0  0  0  0  0  0  0  0  0
   -4.1017   -2.6136    1.3724 C   0  0  0  0  0  0  0  0  0  0  0  0
   -2.5304   -1.6082   -0.2014 C   0  0  0  0  0  0  0  0  0  0  0  0
   -1.6001   -0.6206   -0.5025 C   0  0  0  0  0  0  0  0  0  0  0  0
    1.7603    0.0733    0.7542 C   0  0  0  0  0  0  0  0  0  0  0  0
    2.9626   -0.5350    0.4701 C   0  0  0  0  0  0  0  0  0  0  0  0
  1  2  1  0
  2  3  2  0
  3  4  1  0
  4  5  2  0
  5  6  1  0
  6  7  1  0
  7  8  1  0
  6  9  1  0
  9 10  1  0
  6 11  1  0
 11 12  2  0
 12 13  1  0
 13 14  2  0
 14 15  1  0
 14 16  1  0
 16 17  2  0
  5 18  1  0
 18 19  2  0
 19  2  1  0
 17 11  1  0
M  END
>  <zinc_id>  (1) 
ZINC000003612965

>  <smiles>  (1) 
Cc1ccc(C(CO)(CO)c2ccc(C)cc2)cc1

$$$$
