
     RDKit          3D

 18 19  0  0  0  0  0  0  0  0999 V2000
   -3.6914    1.7200    1.0089 C   0  0  0  0  0  0  0  0  0  0  0  0
   -3.6361    0.0738    0.8561 C   0  0  1  0  0  0  0  0  0  0  0  0
   -4.6221    0.0843   -0.4771 C   0  0  0  0  0  0  0  0  0  0  0  0
   -4.4895   -1.1960   -1.1449 C   0  0  0  0  0  0  0  0  0  0  0  0
   -3.2490   -1.9783   -0.7893 C   0  0  0  0  0  0  0  0  0  0  0  0
   -2.1273   -0.9963   -0.7477 C   0  0  0  0  0  0  0  0  0  0  0  0
   -2.2822    0.0223    0.0428 C   0  0  0  0  0  0  0  0  0  0  0  0
   -1.3056    0.9911    0.2270 N   0  0  0  0  0  0  0  0  0  0  0  0
    0.0036    0.8515    0.6193 N   0  0  0  0  0  0  0  0  0  0  0  0
    0.9374    0.5296   -0.3707 C   0  0  0  0  0  0  0  0  0  0  0  0
    0.5481    0.3868   -1.5570 O   0  0  0  0  0  0  0  0  0  0  0  0
    2.3615    0.3733   -0.0192 C   0  0  0  0  0  0  0  0  0  0  0  0
    3.1732    1.5105   -0.1830 C   0  0  0  0  0  0  0  0  0  0  0  0
    4.4816    1.3864    0.1978 C   0  0  0  0  0  0  0  0  0  0  0  0
    5.0142    0.2329    0.7139 C   0  0  0  0  0  0  0  0  0  0  0  0
    4.2197   -0.8671    0.8677 C   0  0  0  0  0  0  0  0  0  0  0  0
    2.8884   -0.7887    0.4936 C   0  0  0  0  0  0  0  0  0  0  0  0
    1.7754   -2.3361    0.6217 Br  0  0  0  0  0  0  0  0  0  0  0  0
  2  1  1  6
  2  3  1  0
  3  4  1  0
  4  5  1  0
  5  6  1  0
  6  7  2  0
  7  8  1  0
  8  9  1  0
  9 10  1  0
 10 11  2  0
 10 12  1  0
 12 13  2  0
 13 14  1  0
 14 15  2  0
 15 16  1  0
 16 17  2  0
 17 18  1  0
  7  2  1  0
 17 12  1  0
M  END
>  <zinc_id>  (1) 
ZINC000003265816

>  <smiles>  (1) 
C[C@H]1CCCC=C1NNC(=O)c1ccccc1Br

$$$$
