
     RDKit          3D

 21 23  0  0  0  0  0  0  0  0999 V2000
   -1.9637    4.0184    0.3819 C   0  0  0  0  0  0  0  0  0  0  0  0
   -1.9404    2.5691    0.5854 C   0  0  0  0  0  0  0  0  0  0  0  0
   -1.9404    1.4026    0.7579 C   0  0  0  0  0  0  0  0  0  0  0  0
   -1.9616   -0.1261    1.0109 C   0  0  1  0  0  0  0  0  0  0  0  0
   -3.4716   -0.5276    0.3468 C   0  0  1  0  0  0  0  0  0  0  0  0
   -3.5311    0.4994   -0.8994 C   0  0  0  0  0  0  0  0  0  0  0  0
   -2.6260    0.1663   -1.9556 C   0  0  0  0  0  0  0  0  0  0  0  0
   -1.2724   -0.0937   -1.4632 C   0  0  0  0  0  0  0  0  0  0  0  0
   -0.9765   -0.5363   -0.1784 C   0  0  1  0  0  0  0  0  0  0  0  0
    0.3431    0.0258    0.3056 C   0  0  0  0  0  0  0  0  0  0  0  0
    1.4734   -0.4485   -1.0659 S   0  0  0  0  0  0  0  0  0  0  0  0
    3.1253    0.1152   -0.7218 C   0  0  0  0  0  0  0  0  0  0  0  0
    3.4928    1.3614   -1.1515 C   0  0  0  0  0  0  0  0  0  0  0  0
    4.7879    1.7826   -0.8724 C   0  0  0  0  0  0  0  0  0  0  0  0
    5.6783    0.9674   -0.1815 C   0  0  0  0  0  0  0  0  0  0  0  0
    5.2492   -0.2797    0.2263 C   0  0  0  0  0  0  0  0  0  0  0  0
    3.9721   -0.7344   -0.0311 C   0  0  0  0  0  0  0  0  0  0  0  0
   -0.8647   -1.9897    0.0570 N   0  0  0  0  0  0  0  0  0  0  0  0
   -2.1299   -2.6083   -0.0409 C   0  0  0  0  0  0  0  0  0  0  0  0
   -2.3335   -3.8076    0.2184 O   0  0  0  0  0  0  0  0  0  0  0  0
   -3.1103   -1.7564   -0.4503 O   0  0  0  0  0  0  0  0  0  0  0  0
  1  2  1  0
  2  3  3  0
  4  3  1  6
  4  5  1  0
  5  6  1  6
  6  7  1  0
  7  8  1  0
  8  9  1  0
  9 10  1  1
 10 11  1  0
 11 12  1  0
 12 13  2  0
 13 14  1  0
 14 15  2  0
 15 16  1  0
 16 17  2  0
  9 18  1  0
 18 19  1  0
 19 20  2  0
 19 21  1  0
  9  4  1  0
 17 12  1  0
 21  5  1  0
M  END
>  <zinc_id>  (1) 
ZINC000001613570

>  <smiles>  (1) 
CC#C[C@H]1[C@H]2CCC[C@]1(CSc1ccccc1)NC(=O)O2

$$$$
