
     RDKit          3D

 20 22  0  0  0  0  0  0  0  0999 V2000
   -1.0957   -3.0405    0.8589 C   0  0  0  0  0  0  0  0  0  0  0  0
   -0.0635   -1.9971    0.6567 C   0  0  0  0  0  0  0  0  0  0  0  0
    1.2922   -2.2175    0.7686 C   0  0  0  0  0  0  0  0  0  0  0  0
    1.8956   -1.0225    0.5116 C   0  0  0  0  0  0  0  0  0  0  0  0
    0.8759   -0.1167    0.2518 C   0  0  0  0  0  0  0  0  0  0  0  0
   -0.3146   -0.7105    0.3404 N   0  0  0  0  0  0  0  0  0  0  0  0
   -1.6157   -0.1370    0.1471 C   0  0  0  0  0  0  0  0  0  0  0  0
   -2.0489    0.9644    0.8558 C   0  0  0  0  0  0  0  0  0  0  0  0
   -3.2949    1.5368    0.6905 C   0  0  0  0  0  0  0  0  0  0  0  0
   -4.1565    0.9801   -0.2327 C   0  0  0  0  0  0  0  0  0  0  0  0
   -5.4405    1.5845   -0.3907 N   0  0  0  0  0  0  0  0  0  0  0  0
   -3.7724   -0.1237   -0.9690 C   0  0  0  0  0  0  0  0  0  0  0  0
   -2.5129   -0.6566   -0.7630 C   0  0  0  0  0  0  0  0  0  0  0  0
    1.2496    1.2650   -0.0596 C   0  0  0  0  0  0  0  0  0  0  0  0
    2.5301    1.3381   -0.8318 C   0  0  0  0  0  0  0  0  0  0  0  0
    2.3732    0.8471   -2.2525 C   0  0  0  0  0  0  0  0  0  0  0  0
    2.9126    2.8160   -0.9260 C   0  0  0  0  0  0  0  0  0  0  0  0
    3.6746    0.6218   -0.2033 C   0  0  0  0  0  0  0  0  0  0  0  0
    3.2987   -0.6276    0.4795 C   0  0  0  0  0  0  0  0  0  0  0  0
    4.2131   -1.3042    1.0092 O   0  0  0  0  0  0  0  0  0  0  0  0
  1  2  1  0
  2  3  2  0
  3  4  1  0
  4  5  2  0
  5  6  1  0
  6  7  1  0
  7  8  2  0
  8  9  1  0
  9 10  2  0
 10 11  1  0
 10 12  1  0
 12 13  2  0
  5 14  1  0
 14 15  1  0
 15 16  1  0
 15 17  1  0
 15 18  1  0
 18 19  1  0
 19 20  2  0
  6  2  1  0
 13  7  1  0
 19  4  1  0
M  END
>  <zinc_id>  (1) 
ZINC000002561669

>  <smiles>  (1) 
Cc1cc2c(n1-c1ccc(N)cc1)CC(C)(C)CC2=O

$$$$
