
     RDKit          3D

 20 21  0  0  0  0  0  0  0  0999 V2000
    5.5421    1.4916    0.2681 C   0  0  0  0  0  0  0  0  0  0  0  0
    4.4094    0.6081    0.2152 N   0  0  0  0  0  0  0  0  0  0  0  0
    4.4726   -0.7265   -0.2666 C   0  0  0  0  0  0  0  0  0  0  0  0
    5.8907   -1.2898   -0.7853 S   0  0  0  0  0  0  0  0  0  0  0  0
    3.3333   -1.5314   -0.2904 N   0  0  0  0  0  0  0  0  0  0  0  0
    2.0433   -1.1232    0.1448 C   0  0  0  0  0  0  0  0  0  0  0  0
    1.8254    0.1464    0.6389 C   0  0  0  0  0  0  0  0  0  0  0  0
    0.5841    0.5677    1.0676 C   0  0  0  0  0  0  0  0  0  0  0  0
   -0.5261   -0.2708    1.0255 C   0  0  0  0  0  0  0  0  0  0  0  0
   -1.7715    0.1582    1.4587 O   0  0  0  0  0  0  0  0  0  0  0  0
   -2.6120    0.7866    0.5688 C   0  0  0  0  0  0  0  0  0  0  0  0
   -3.0394    2.0750    0.7872 C   0  0  0  0  0  0  0  0  0  0  0  0
   -3.8810    2.7315   -0.0843 C   0  0  0  0  0  0  0  0  0  0  0  0
   -4.2842    2.0319   -1.2037 C   0  0  0  0  0  0  0  0  0  0  0  0
   -3.8747    0.7630   -1.4368 C   0  0  0  0  0  0  0  0  0  0  0  0
   -3.0321    0.1236   -0.5517 C   0  0  0  0  0  0  0  0  0  0  0  0
   -2.6398   -1.1950   -0.8450 O   0  0  0  0  0  0  0  0  0  0  0  0
   -3.0821   -1.8503   -1.9941 C   0  0  0  0  0  0  0  0  0  0  0  0
   -0.3045   -1.5386    0.5312 C   0  0  0  0  0  0  0  0  0  0  0  0
    0.9464   -1.9582    0.1009 C   0  0  0  0  0  0  0  0  0  0  0  0
  1  2  1  0
  2  3  1  0
  3  4  2  0
  3  5  1  0
  5  6  1  0
  6  7  2  0
  7  8  1  0
  8  9  2  0
  9 10  1  0
 10 11  1  0
 11 12  2  0
 12 13  1  0
 13 14  2  0
 14 15  1  0
 15 16  2  0
 16 17  1  0
 17 18  1  0
  9 19  1  0
 19 20  2  0
 20  6  1  0
 16 11  1  0
M  END
>  <zinc_id>  (1) 
ZINC000002887707

>  <smiles>  (1) 
CNC(=S)Nc1ccc(Oc2ccccc2OC)cc1

$$$$
