
     RDKit          3D

 19 21  0  0  0  0  0  0  0  0999 V2000
   -4.4741    1.9034    0.7466 C   0  0  0  0  0  0  0  0  0  0  0  0
   -3.4644    0.8494    0.5542 C   0  0  0  0  0  0  0  0  0  0  0  0
   -2.2411    1.1828   -0.0368 C   0  0  0  0  0  0  0  0  0  0  0  0
   -1.2844    0.2062   -0.2240 C   0  0  0  0  0  0  0  0  0  0  0  0
   -0.0313    0.2727   -0.7682 N   0  0  0  0  0  0  0  0  0  0  0  0
    0.4312   -0.9267   -0.6970 C   0  0  0  0  0  0  0  0  0  0  0  0
    1.9056   -1.4122   -1.2085 C   0  0  1  0  0  0  0  0  0  0  0  0
    1.8004   -0.6623   -2.5615 O   0  0  0  0  0  0  0  0  0  0  0  0
    2.7558   -0.2530   -0.4693 C   0  0  0  0  0  0  0  0  0  0  0  0
    2.3879    0.0839    0.7805 C   0  0  0  0  0  0  0  0  0  0  0  0
    3.0943    1.0681    1.4492 C   0  0  0  0  0  0  0  0  0  0  0  0
    4.1538    1.6655    0.7991 C   0  0  0  0  0  0  0  0  0  0  0  0
    4.5184    1.2989   -0.5013 C   0  0  0  0  0  0  0  0  0  0  0  0
    3.7761    0.3040   -1.1302 C   0  0  0  0  0  0  0  0  0  0  0  0
   -0.3979   -1.8186   -0.1485 N   0  0  0  0  0  0  0  0  0  0  0  0
   -1.5004   -1.1091    0.1595 C   0  0  0  0  0  0  0  0  0  0  0  0
   -2.7246   -1.3880    0.7387 C   0  0  0  0  0  0  0  0  0  0  0  0
   -3.6973   -0.4500    0.9413 C   0  0  0  0  0  0  0  0  0  0  0  0
   -5.0081   -0.8150    1.5761 C   0  0  0  0  0  0  0  0  0  0  0  0
  1  2  1  0
  2  3  2  0
  3  4  1  0
  4  5  1  0
  5  6  2  0
  6  7  1  0
  7  8  1  6
  7  9  1  0
  9 10  2  0
 10 11  1  0
 11 12  2  0
 12 13  1  0
 13 14  2  0
  6 15  1  0
 15 16  1  0
 16 17  1  0
 17 18  2  0
 18 19  1  0
 18  2  1  0
 16  4  2  0
 14  9  1  0
M  END
>  <zinc_id>  (1) 
ZINC000000393907

>  <smiles>  (1) 
Cc1cc2nc([C@@H](O)c3ccccc3)[nH]c2cc1C

$$$$
