
     RDKit          3D

 19 20  0  0  0  0  0  0  0  0999 V2000
    4.2993   -0.9186    2.3791 C   0  0  0  0  0  0  0  0  0  0  0  0
    5.2497   -0.8605    1.1857 C   0  0  0  0  0  0  0  0  0  0  0  0
    4.4906   -1.3327    0.0723 O   0  0  0  0  0  0  0  0  0  0  0  0
    3.3300   -0.6587   -0.3085 C   0  0  0  0  0  0  0  0  0  0  0  0
    2.9138    0.4502    0.3743 C   0  0  0  0  0  0  0  0  0  0  0  0
    1.7610    1.0938   -0.0285 C   0  0  0  0  0  0  0  0  0  0  0  0
    1.0081    0.6614   -1.0971 C   0  0  0  0  0  0  0  0  0  0  0  0
   -0.2325    1.3289   -1.5568 C   0  0  0  0  0  0  0  0  0  0  0  0
   -1.4284    0.8084   -0.8469 C   0  0  0  0  0  0  0  0  0  0  0  0
   -2.3357   -0.0696   -1.4106 C   0  0  0  0  0  0  0  0  0  0  0  0
   -3.4078   -0.5143   -0.7227 N   0  0  0  0  0  0  0  0  0  0  0  0
   -3.5936   -0.0894    0.5410 C   0  0  0  0  0  0  0  0  0  0  0  0
   -5.0196   -0.6629    1.4869 S   0  0  0  0  0  0  0  0  0  0  0  0
   -6.0037   -1.7921    0.4598 C   0  0  0  0  0  0  0  0  0  0  0  0
   -2.7201    0.7632    1.0999 N   0  0  0  0  0  0  0  0  0  0  0  0
   -1.6400    1.2304    0.4513 C   0  0  0  0  0  0  0  0  0  0  0  0
   -0.7222    2.1433    1.0736 N   0  0  0  0  0  0  0  0  0  0  0  0
    1.4417   -0.4577   -1.7740 C   0  0  0  0  0  0  0  0  0  0  0  0
    2.6095   -1.1230   -1.3788 C   0  0  0  0  0  0  0  0  0  0  0  0
  1  2  1  0
  2  3  1  0
  3  4  1  0
  4  5  2  0
  5  6  1  0
  6  7  2  0
  7  8  1  0
  8  9  1  0
  9 10  2  0
 10 11  1  0
 11 12  2  0
 12 13  1  0
 13 14  1  0
 12 15  1  0
 15 16  2  0
 16 17  1  0
  7 18  1  0
 18 19  2  0
 19  4  1  0
 16  9  1  0
M  END
>  <zinc_id>  (1) 
ZINC000000175943

>  <smiles>  (1) 
CCOc1ccc(Cc2cnc(SC)nc2N)cc1

$$$$
