
     RDKit          3D

 19 21  0  0  0  0  0  0  0  0999 V2000
   -5.0978    2.1817    0.3492 C   0  0  0  0  0  0  0  0  0  0  0  0
   -4.4873    1.0415    0.9224 O   0  0  0  0  0  0  0  0  0  0  0  0
   -3.4033    0.4008    0.3247 C   0  0  0  0  0  0  0  0  0  0  0  0
   -2.9037    0.8896   -0.8661 C   0  0  0  0  0  0  0  0  0  0  0  0
   -1.8310    0.2694   -1.4734 C   0  0  0  0  0  0  0  0  0  0  0  0
   -1.2627   -0.8724   -0.8454 C   0  0  0  0  0  0  0  0  0  0  0  0
   -1.7351   -1.3526    0.3008 C   0  0  0  0  0  0  0  0  0  0  0  0
   -2.8177   -0.7103    0.8949 C   0  0  0  0  0  0  0  0  0  0  0  0
   -0.9874   -2.5046    0.6963 C   0  0  0  0  0  0  0  0  0  0  0  0
    0.5071   -2.2294    0.0567 C   0  0  2  0  0  0  0  0  0  0  0  0
    0.6234   -0.7940    0.7230 N   0  0  0  0  0  0  0  0  0  0  0  0
    1.8440   -0.1489    0.4134 C   0  0  0  0  0  0  0  0  0  0  0  0
    2.0558    1.1247    0.9479 C   0  0  0  0  0  0  0  0  0  0  0  0
    3.2198    1.7925    0.6794 C   0  0  0  0  0  0  0  0  0  0  0  0
    4.2137    1.2546   -0.1110 C   0  0  0  0  0  0  0  0  0  0  0  0
    5.3769    1.9728   -0.3536 O   0  0  0  0  0  0  0  0  0  0  0  0
    4.0038   -0.0177   -0.6458 C   0  0  0  0  0  0  0  0  0  0  0  0
    2.8303   -0.7005   -0.3799 C   0  0  0  0  0  0  0  0  0  0  0  0
   -0.1487   -1.5974   -1.3532 C   0  0  0  0  0  0  0  0  0  0  0  0
  1  2  1  0
  2  3  1  0
  3  4  2  0
  4  5  1  0
  5  6  2  0
  6  7  1  0
  7  8  2  0
  7  9  1  0
  9 10  1  0
 10 11  1  1
 11 12  1  0
 12 13  2  0
 13 14  1  0
 14 15  2  0
 15 16  1  0
 15 17  1  0
 17 18  2  0
 10 19  1  0
  8  3  1  0
 18 12  1  0
 19  6  1  0
M  END
>  <zinc_id>  (1) 
ZINC000000009661

>  <smiles>  (1) 
COc1ccc2c(c1)C[C@H](Nc1ccc(O)cc1)C2

$$$$
