
     RDKit          3D

 19 20  0  0  0  0  0  0  0  0999 V2000
    4.9324    1.1398   -0.7188 C   0  0  0  0  0  0  0  0  0  0  0  0
    5.5753   -0.1720   -0.3143 C   0  0  0  0  0  0  0  0  0  0  0  0
    4.6170   -1.2640   -0.7725 C   0  0  0  0  0  0  0  0  0  0  0  0
    3.2817   -1.0865   -0.1017 C   0  0  0  0  0  0  0  0  0  0  0  0
    1.8041   -0.4698   -0.7035 S   0  0  0  0  0  0  0  0  0  0  0  0
    0.8631   -0.6373    0.7101 C   0  0  0  0  0  0  0  0  0  0  0  0
   -0.5173   -0.3257    0.9904 N   0  0  0  0  0  0  0  0  0  0  0  0
   -1.3071    0.2188   -0.0413 C   0  0  0  0  0  0  0  0  0  0  0  0
   -0.7745    0.4077   -1.1594 O   0  0  0  0  0  0  0  0  0  0  0  0
   -2.7092    0.5675    0.1421 C   0  0  0  0  0  0  0  0  0  0  0  0
   -3.3539    0.3796    1.3554 C   0  0  0  0  0  0  0  0  0  0  0  0
   -4.6801    0.7139    1.5139 C   0  0  0  0  0  0  0  0  0  0  0  0
   -5.4095    1.2482    0.4655 C   0  0  0  0  0  0  0  0  0  0  0  0
   -4.7524    1.4254   -0.7246 C   0  0  0  0  0  0  0  0  0  0  0  0
   -3.4317    1.0985   -0.9022 C   0  0  0  0  0  0  0  0  0  0  0  0
   -2.7870    1.2896   -2.1270 O   0  0  0  0  0  0  0  0  0  0  0  0
    1.7271   -1.1555    1.5680 N   0  0  0  0  0  0  0  0  0  0  0  0
    2.9420   -1.3915    1.1942 C   0  0  0  0  0  0  0  0  0  0  0  0
    3.9800   -1.9870    2.1304 C   0  0  0  0  0  0  0  0  0  0  0  0
  1  2  1  0
  2  3  1  0
  3  4  1  0
  4  5  1  0
  5  6  1  0
  6  7  1  0
  7  8  1  0
  8  9  2  0
  8 10  1  0
 10 11  2  0
 11 12  1  0
 12 13  2  0
 13 14  1  0
 14 15  2  0
 15 16  1  0
  6 17  2  0
 17 18  1  0
 18 19  1  0
 18  4  2  0
 15 10  1  0
M  END
>  <zinc_id>  (1) 
ZINC000003078614

>  <smiles>  (1) 
CCCc1sc(NC(=O)c2ccccc2O)nc1C

$$$$
