
     RDKit          3D

 19 20  0  0  0  0  0  0  0  0999 V2000
    4.2071   -1.0557   -2.3058 C   0  0  0  0  0  0  0  0  0  0  0  0
    4.0691   -0.1719   -1.0983 C   0  0  0  0  0  0  0  0  0  0  0  0
    4.6286    1.2007   -1.4477 C   0  0  0  0  0  0  0  0  0  0  0  0
    5.0055   -0.7287   -0.0242 C   0  0  0  0  0  0  0  0  0  0  0  0
    2.6867   -0.0843   -0.5771 C   0  0  0  0  0  0  0  0  0  0  0  0
    1.6240   -0.2863   -1.4364 C   0  0  0  0  0  0  0  0  0  0  0  0
    0.3323   -0.2127   -0.9463 C   0  0  0  0  0  0  0  0  0  0  0  0
    0.0414    0.0514    0.3561 C   0  0  0  0  0  0  0  0  0  0  0  0
   -1.2018    0.1369    0.9104 O   0  0  0  0  0  0  0  0  0  0  0  0
   -2.4201   -0.0516    0.3413 C   0  0  0  0  0  0  0  0  0  0  0  0
   -2.6407   -0.3894   -0.9260 N   0  0  0  0  0  0  0  0  0  0  0  0
   -3.8827   -0.5731   -1.4638 C   0  0  0  0  0  0  0  0  0  0  0  0
   -4.9762   -0.4053   -0.6760 C   0  0  0  0  0  0  0  0  0  0  0  0
   -4.8087   -0.0502    0.6598 C   0  0  0  0  0  0  0  0  0  0  0  0
   -3.5396    0.1256    1.1664 C   0  0  0  0  0  0  0  0  0  0  0  0
   -3.4096    0.4942    2.5320 N   0  0  0  0  0  0  0  0  0  0  0  0
    1.1066    0.2599    1.2485 C   0  0  0  0  0  0  0  0  0  0  0  0
    0.7914    0.6136    2.9454 Cl  0  0  0  0  0  0  0  0  0  0  0  0
    2.3868    0.1830    0.7418 C   0  0  0  0  0  0  0  0  0  0  0  0
  1  2  1  0
  2  3  1  0
  2  4  1  0
  2  5  1  0
  5  6  2  0
  6  7  1  0
  7  8  2  0
  8  9  1  0
  9 10  1  0
 10 11  2  0
 11 12  1  0
 12 13  2  0
 13 14  1  0
 14 15  2  0
 15 16  1  0
  8 17  1  0
 17 18  1  0
 17 19  2  0
 19  5  1  0
 15 10  1  0
M  END
>  <zinc_id>  (1) 
ZINC000000177986

>  <smiles>  (1) 
CC(C)(C)c1ccc(Oc2ncccc2N)c(Cl)c1

$$$$
