
     RDKit          3D

 19 20  0  0  0  0  0  0  0  0999 V2000
   -0.5472   -0.0076   -1.8454 C   0  0  0  0  0  0  0  0  0  0  0  0
   -1.1407    0.1615   -0.5130 C   0  0  0  0  0  0  0  0  0  0  0  0
   -0.4064    0.5377    0.4580 N   0  0  0  0  0  0  0  0  0  0  0  0
    0.9750    0.7987    0.2854 N   0  0  0  0  0  0  0  0  0  0  0  0
    1.8648   -0.2465   -0.1152 C   0  0  0  0  0  0  0  0  0  0  0  0
    1.3648   -1.3839   -0.3015 O   0  0  0  0  0  0  0  0  0  0  0  0
    3.2876   -0.0042   -0.2992 C   0  0  0  0  0  0  0  0  0  0  0  0
    4.1916   -0.9598   -0.6809 C   0  0  0  0  0  0  0  0  0  0  0  0
    5.4329   -0.3187   -0.7390 C   0  0  0  0  0  0  0  0  0  0  0  0
    5.1900    1.0026   -0.3825 C   0  0  0  0  0  0  0  0  0  0  0  0
    6.1674    2.1179   -0.2826 C   0  0  0  0  0  0  0  0  0  0  0  0
    3.8913    1.1241   -0.1327 O   0  0  0  0  0  0  0  0  0  0  0  0
   -2.5725   -0.0935   -0.2648 C   0  0  0  0  0  0  0  0  0  0  0  0
   -3.1142    0.0700    0.9925 C   0  0  0  0  0  0  0  0  0  0  0  0
   -4.4577   -0.1669    1.2356 C   0  0  0  0  0  0  0  0  0  0  0  0
   -5.3010   -0.5760    0.2237 C   0  0  0  0  0  0  0  0  0  0  0  0
   -6.6582   -0.8152    0.4700 O   0  0  0  0  0  0  0  0  0  0  0  0
   -4.7525   -0.7376   -1.0315 C   0  0  0  0  0  0  0  0  0  0  0  0
   -3.4150   -0.5026   -1.2775 C   0  0  0  0  0  0  0  0  0  0  0  0
  1  2  1  0
  2  3  2  0
  3  4  1  0
  4  5  1  0
  5  6  2  0
  5  7  1  0
  7  8  2  0
  8  9  1  0
  9 10  2  0
 10 11  1  0
 10 12  1  0
  2 13  1  0
 13 14  2  0
 14 15  1  0
 15 16  2  0
 16 17  1  0
 16 18  1  0
 18 19  2  0
 12  7  1  0
 19 13  1  0
M  END
>  <zinc_id>  (1) 
ZINC000000583042

>  <smiles>  (1) 
C/C(=N\NC(=O)c1ccc(C)o1)c1ccc(O)cc1

$$$$
