
     RDKit          3D

 21 22  0  0  0  0  0  0  0  0999 V2000
    1.6777    0.5828    1.5584 C   0  0  0  0  0  0  0  0  0  0  0  0
    1.2849    1.2606    0.5957 C   0  0  0  0  0  0  0  0  0  0  0  0
    1.0517    2.5863    0.4974 N   0  0  0  0  0  0  0  0  0  0  0  0
   -0.2170    3.0210   -0.0296 C   0  0  0  0  0  0  0  0  0  0  0  0
   -0.5944    4.1904   -0.1790 O   0  0  0  0  0  0  0  0  0  0  0  0
   -1.0293    1.9382   -0.3511 N   0  0  0  0  0  0  0  0  0  0  0  0
   -0.5564    0.5817   -0.8010 C   0  0  2  0  0  0  0  0  0  0  0  0
   -1.6932   -0.2603   -0.6365 C   0  0  0  0  0  0  0  0  0  0  0  0
   -2.5874   -0.0121   -1.7356 C   0  0  0  0  0  0  0  0  0  0  0  0
   -3.9018   -0.3979   -1.6434 C   0  0  0  0  0  0  0  0  0  0  0  0
   -4.4120   -1.0107   -0.5560 C   0  0  0  0  0  0  0  0  0  0  0  0
   -3.4740   -1.2432    0.5396 C   0  0  0  0  0  0  0  0  0  0  0  0
   -2.2375   -0.8611    0.3975 C   0  0  0  0  0  0  0  0  0  0  0  0
   -1.3228   -1.0393    1.3417 O   0  0  0  0  0  0  0  0  0  0  0  0
    0.9417    0.5129   -0.8105 C   0  0  2  0  0  0  0  0  0  0  0  0
    1.5571   -0.8321   -0.7178 C   0  0  0  0  0  0  0  0  0  0  0  0
    1.5967   -1.6694   -1.6495 O   0  0  0  0  0  0  0  0  0  0  0  0
    2.1657   -1.2346    0.4997 O   0  0  0  0  0  0  0  0  0  0  0  0
    2.8000   -2.4226    0.7060 C   0  0  0  0  0  0  0  0  0  0  0  0
    4.0208   -2.4325   -0.2270 C   0  0  0  0  0  0  0  0  0  0  0  0
    4.9297   -1.2581    0.1414 C   0  0  0  0  0  0  0  0  0  0  0  0
  1  2  2  0
  2  3  1  0
  3  4  1  0
  4  5  2  0
  4  6  1  0
  6  7  1  0
  7  8  1  1
  8  9  2  0
  9 10  1  0
 10 11  2  0
 11 12  1  0
 12 13  2  0
 13 14  1  0
  7 15  1  0
 15 16  1  1
 16 17  2  0
 16 18  1  0
 18 19  1  0
 19 20  1  0
 20 21  1  0
 15  2  1  0
 13  8  1  0
M  END
>  <zinc_id>  (1) 
ZINC000002179592

>  <smiles>  (1) 
C=C1NC(=O)N[C@H](c2ccccc2O)[C@@H]1C(=O)OCCC

$$$$
