
     RDKit          3D

 21 23  0  0  0  0  0  0  0  0999 V2000
   -4.0350    1.5771   -1.0166 C   0  0  0  0  0  0  0  0  0  0  0  0
   -3.2394    0.6707   -0.1008 C   0  0  1  0  0  0  0  0  0  0  0  0
   -3.6973    0.9588    1.3228 C   0  0  0  0  0  0  0  0  0  0  0  0
   -5.2182    0.6717    1.4727 C   0  0  0  0  0  0  0  0  0  0  0  0
   -4.1802   -0.1686    2.1451 C   0  0  0  0  0  0  0  0  0  0  0  0
   -3.4414   -0.7166   -0.4537 N   0  0  0  0  0  0  0  0  0  0  0  0
   -2.2445   -1.4266   -0.1807 C   0  0  0  0  0  0  0  0  0  0  0  0
   -2.0925   -2.6821   -0.0653 O   0  0  0  0  0  0  0  0  0  0  0  0
   -1.2191   -0.4433   -0.0570 N   0  0  0  0  0  0  0  0  0  0  0  0
    0.1811   -0.7015    0.2223 C   0  0  0  0  0  0  0  0  0  0  0  0
    0.9705   -0.8950   -1.0600 C   0  0  0  0  0  0  0  0  0  0  0  0
    2.3080   -1.1403   -0.7474 O   0  0  0  0  0  0  0  0  0  0  0  0
    3.1287   -0.2766   -0.0515 C   0  0  0  0  0  0  0  0  0  0  0  0
    2.7262    0.9521    0.4284 C   0  0  0  0  0  0  0  0  0  0  0  0
    3.5717    1.7982    1.1236 C   0  0  0  0  0  0  0  0  0  0  0  0
    4.8744    1.4091    1.3534 C   0  0  0  0  0  0  0  0  0  0  0  0
    5.3075    0.1770    0.8817 C   0  0  0  0  0  0  0  0  0  0  0  0
    4.4365   -0.6542    0.1857 C   0  0  0  0  0  0  0  0  0  0  0  0
    4.8558   -1.8710   -0.2829 F   0  0  0  0  0  0  0  0  0  0  0  0
   -1.7895    0.8434   -0.2524 C   0  0  0  0  0  0  0  0  0  0  0  0
   -1.2034    1.9178   -0.5028 O   0  0  0  0  0  0  0  0  0  0  0  0
  2  1  1  6
  2  3  1  0
  3  4  1  0
  4  5  1  0
  2  6  1  0
  6  7  1  0
  7  8  2  0
  7  9  1  0
  9 10  1  0
 10 11  1  0
 11 12  1  0
 12 13  1  0
 13 14  2  0
 14 15  1  0
 15 16  2  0
 16 17  1  0
 17 18  2  0
 18 19  1  0
  9 20  1  0
 20 21  2  0
 20  2  1  0
  5  3  1  0
 18 13  1  0
M  END
>  <zinc_id>  (1) 
ZINC000003440755

>  <smiles>  (1) 
C[C@@]1(C2CC2)NC(=O)N(CCOc2ccccc2F)C1=O

$$$$
