
     RDKit          3D

 22 23  0  0  0  0  0  0  0  0999 V2000
    2.6914   -2.6197   -2.8414 C   0  0  0  0  0  0  0  0  0  0  0  0
    2.0374   -1.8973   -1.8385 O   0  0  0  0  0  0  0  0  0  0  0  0
    2.7764   -1.0553   -1.0246 C   0  0  0  0  0  0  0  0  0  0  0  0
    4.1644   -0.9316   -1.2150 C   0  0  0  0  0  0  0  0  0  0  0  0
    4.8365   -0.0723   -0.3672 C   0  0  0  0  0  0  0  0  0  0  0  0
    4.2320    0.6348    0.6141 C   0  0  0  0  0  0  0  0  0  0  0  0
    4.9516    1.5794    1.5226 C   0  0  0  0  0  0  0  0  0  0  0  0
    2.8491    0.5038    0.7984 C   0  0  0  0  0  0  0  0  0  0  0  0
    2.1295   -0.3562   -0.0422 C   0  0  0  0  0  0  0  0  0  0  0  0
    0.7263   -0.5078    0.0199 N   0  0  0  0  0  0  0  0  0  0  0  0
   -0.0254   -0.0290    1.0976 C   0  0  0  0  0  0  0  0  0  0  0  0
    0.5333    0.5519    2.0797 O   0  0  0  0  0  0  0  0  0  0  0  0
   -1.4822   -0.1878    1.1255 C   0  0  0  0  0  0  0  0  0  0  0  0
   -2.0493   -0.8963    2.1581 C   0  0  0  0  0  0  0  0  0  0  0  0
   -3.4202   -1.0799    2.0747 C   0  0  0  0  0  0  0  0  0  0  0  0
   -4.1333   -0.5736    1.0216 C   0  0  0  0  0  0  0  0  0  0  0  0
   -3.5375    0.1510   -0.0256 C   0  0  0  0  0  0  0  0  0  0  0  0
   -4.3362    0.6729   -1.0657 N   0  0  0  0  0  4  0  0  0  0  0  0
   -5.5167    0.9351   -0.8284 O   0  0  0  0  0  0  0  0  0  0  0  0
   -3.7665    0.8713   -2.3021 O   0  0  0  0  0  1  0  0  0  0  0  0
   -2.1797    0.3286    0.0605 C   0  0  0  0  0  0  0  0  0  0  0  0
   -1.4810    1.1165   -1.0222 C   0  0  0  0  0  0  0  0  0  0  0  0
  1  2  1  0
  2  3  1  0
  3  4  2  0
  4  5  1  0
  5  6  2  0
  6  7  1  0
  6  8  1  0
  8  9  2  0
  9 10  1  0
 10 11  1  0
 11 12  2  0
 11 13  1  0
 13 14  2  0
 14 15  1  0
 15 16  2  0
 16 17  1  0
 17 18  1  0
 18 19  2  0
 18 20  1  0
 17 21  2  0
 21 22  1  0
  9  3  1  0
 21 13  1  0
M  CHG  2  18   1  20  -1
M  END
>  <zinc_id>  (1) 
ZINC000000447748

>  <smiles>  (1) 
COc1ccc(C)cc1NC(=O)c1cccc([N+](=O)[O-])c1C

$$$$
