
     RDKit          3D

 18 19  0  0  0  0  0  0  0  0999 V2000
    0.2400   -3.5308    0.4247 C   0  0  0  0  0  0  0  0  0  0  0  0
    0.3122   -2.3745   -0.1727 C   0  0  0  0  0  0  0  0  0  0  0  0
    1.4548   -1.9919   -0.9073 N   0  0  0  0  0  0  0  0  0  0  0  0
    1.7466   -0.6142   -0.9452 N   0  0  0  0  0  0  0  0  0  0  0  0
    3.0248   -0.1747   -0.5190 C   0  0  0  0  0  0  0  0  0  0  0  0
    3.8425   -1.0209   -0.1330 O   0  0  0  0  0  0  0  0  0  0  0  0
    3.3899    1.1744   -0.5207 O   0  0  0  0  0  0  0  0  0  0  0  0
    4.6911    1.5415   -0.0817 C   0  0  0  0  0  0  0  0  0  0  0  0
    4.7941    3.0344   -0.1838 C   0  0  0  0  0  0  0  0  0  0  0  0
   -0.8068   -1.4288   -0.1113 C   0  0  0  0  0  0  0  0  0  0  0  0
   -0.8741   -0.1573   -0.5750 C   0  0  0  0  0  0  0  0  0  0  0  0
   -2.0047    0.5382   -0.4166 C   0  0  0  0  0  0  0  0  0  0  0  0
   -2.2192    1.8584   -0.8415 C   0  0  0  0  0  0  0  0  0  0  0  0
   -3.4235    2.4611   -0.6179 C   0  0  0  0  0  0  0  0  0  0  0  0
   -4.4806    1.8565    0.0119 C   0  0  0  0  0  0  0  0  0  0  0  0
   -4.2675    0.5511    0.4311 C   0  0  0  0  0  0  0  0  0  0  0  0
   -3.0402   -0.0917    0.2151 C   0  0  0  0  0  0  0  0  0  0  0  0
   -2.3795   -1.6311    0.5580 S   0  0  0  0  0  0  0  0  0  0  0  0
  1  2  2  0
  2  3  1  0
  3  4  1  0
  4  5  1  0
  5  6  2  0
  5  7  1  0
  7  8  1  0
  8  9  1  0
  2 10  1  0
 10 11  2  0
 11 12  1  0
 12 13  2  0
 13 14  1  0
 14 15  2  0
 15 16  1  0
 16 17  2  0
 17 18  1  0
 18 10  1  0
 17 12  1  0
M  END
>  <zinc_id>  (1) 
ZINC000001880250

>  <smiles>  (1) 
C=C(NNC(=O)OCC)c1cc2ccccc2s1

$$$$
