
     RDKit          3D

 20 22  0  0  0  0  0  0  0  0999 V2000
    3.4064    2.3192    2.0746 C   0  0  0  0  0  0  0  0  0  0  0  0
    2.4866    1.3470    1.9352 C   0  0  0  0  0  0  0  0  0  0  0  0
    1.8743    1.1379    0.6161 C   0  0  0  0  0  0  0  0  0  0  0  0
    2.0774   -0.1660    0.0551 N   0  0  0  0  0  0  0  0  0  0  0  0
    1.2563   -1.2177    0.2420 C   0  0  0  0  0  0  0  0  0  0  0  0
   -0.0022   -1.2746    1.0433 C   0  0  0  0  0  0  0  0  0  0  0  0
   -1.1798   -0.9028    0.1992 C   0  0  0  0  0  0  0  0  0  0  0  0
   -1.8305   -1.6426   -0.7543 C   0  0  0  0  0  0  0  0  0  0  0  0
   -1.4692   -3.0338   -1.1532 C   0  0  0  0  0  0  0  0  0  0  0  0
   -2.8250   -0.8915   -1.2439 N   0  0  0  0  0  0  0  0  0  0  0  0
   -2.8658    0.3258   -0.6540 C   0  0  0  0  0  0  0  0  0  0  0  0
   -3.6975    1.4127   -0.8290 C   0  0  0  0  0  0  0  0  0  0  0  0
   -3.4793    2.5308   -0.0628 C   0  0  0  0  0  0  0  0  0  0  0  0
   -2.4505    2.5301    0.8431 C   0  0  0  0  0  0  0  0  0  0  0  0
   -1.6239    1.4451    1.0146 C   0  0  0  0  0  0  0  0  0  0  0  0
   -1.8291    0.3133    0.2530 C   0  0  0  0  0  0  0  0  0  0  0  0
    1.7943   -2.2342   -0.4438 N   0  0  0  0  0  0  0  0  0  0  0  0
    2.9047   -1.8261   -1.0316 N   0  0  0  0  0  0  0  0  0  0  0  0
    3.0856   -0.5314   -0.7217 C   0  0  0  0  0  0  0  0  0  0  0  0
    4.3672    0.3587   -1.2618 S   0  0  0  0  0  0  0  0  0  0  0  0
  1  2  2  0
  2  3  1  0
  3  4  1  0
  4  5  1  0
  5  6  1  0
  6  7  1  0
  7  8  2  0
  8  9  1  0
  8 10  1  0
 10 11  1  0
 11 12  2  0
 12 13  1  0
 13 14  2  0
 14 15  1  0
 15 16  2  0
  5 17  2  0
 17 18  1  0
 18 19  1  0
 19 20  2  0
 19  4  1  0
 16  7  1  0
 16 11  1  0
M  END
>  <zinc_id>  (1) 
ZINC000000476230

>  <smiles>  (1) 
C=CCn1c(Cc2c(C)[nH]c3ccccc23)n[nH]c1=S

$$$$
