
     RDKit          3D

 21 22  0  0  0  0  0  0  0  0999 V2000
   -1.8849   -2.6191    0.7429 C   0  0  0  0  0  0  0  0  0  0  0  0
   -2.5470   -1.5989    1.6034 C   0  0  0  0  0  0  0  0  0  0  0  0
   -3.2664   -0.5335    0.8603 C   0  0  0  0  0  0  0  0  0  0  0  0
   -4.6675   -0.5742    0.7739 C   0  0  0  0  0  0  0  0  0  0  0  0
   -5.3207    0.4177    0.0913 C   0  0  0  0  0  0  0  0  0  0  0  0
   -4.5989    1.4266   -0.4918 C   0  0  0  0  0  0  0  0  0  0  0  0
   -3.2105    1.4599   -0.4023 C   0  0  0  0  0  0  0  0  0  0  0  0
   -2.4078    2.5431   -1.0262 C   0  0  0  0  0  0  0  0  0  0  0  0
   -2.5307    0.4723    0.2795 C   0  0  0  0  0  0  0  0  0  0  0  0
   -1.1197    0.4569    0.3958 N   0  0  0  0  0  0  0  0  0  0  0  0
   -0.2588   -0.1367   -0.5630 C   0  0  0  0  0  0  0  0  0  0  0  0
   -0.7812   -0.6750   -1.5709 O   0  0  0  0  0  0  0  0  0  0  0  0
    1.1797   -0.0991   -0.3440 C   0  0  0  0  0  0  0  0  0  0  0  0
    1.7171    0.5305    0.7511 C   0  0  0  0  0  0  0  0  0  0  0  0
    3.0836    0.5525    0.9325 C   0  0  0  0  0  0  0  0  0  0  0  0
    3.9168   -0.0603    0.0111 C   0  0  0  0  0  0  0  0  0  0  0  0
    5.3282   -0.0460    0.1795 N   0  0  0  0  0  4  0  0  0  0  0  0
    5.7973    0.5305    1.1801 O   0  0  0  0  0  0  0  0  0  0  0  0
    6.1517   -0.6502   -0.7354 O   0  0  0  0  0  1  0  0  0  0  0  0
    3.4015   -0.6939   -1.0883 C   0  0  0  0  0  0  0  0  0  0  0  0
    2.0180   -0.7031   -1.2505 C   0  0  0  0  0  0  0  0  0  0  0  0
  1  2  1  0
  2  3  1  0
  3  4  2  0
  4  5  1  0
  5  6  2  0
  6  7  1  0
  7  8  1  0
  7  9  2  0
  9 10  1  0
 10 11  1  0
 11 12  2  0
 11 13  1  0
 13 14  2  0
 14 15  1  0
 15 16  2  0
 16 17  1  0
 17 18  2  0
 17 19  1  0
 16 20  1  0
 20 21  2  0
  9  3  1  0
 21 13  1  0
M  CHG  2  17   1  19  -1
M  END
>  <zinc_id>  (1) 
ZINC000000513685

>  <smiles>  (1) 
CCc1cccc(C)c1NC(=O)c1ccc([N+](=O)[O-])cc1

$$$$
