
     RDKit          3D

 21 23  0  0  0  0  0  0  0  0999 V2000
   -4.1327   -0.9907    2.9281 C   0  0  0  0  0  0  0  0  0  0  0  0
   -3.2782   -1.9706    2.1767 C   0  0  0  0  0  0  0  0  0  0  0  0
   -2.2976   -1.3078    1.2845 C   0  0  0  0  0  0  0  0  0  0  0  0
   -0.9791   -1.1392    1.4505 N   0  0  0  0  0  0  0  0  0  0  0  0
   -0.4363   -0.4974    0.4389 N   0  0  0  0  0  0  0  0  0  0  0  0
    0.9383   -0.1507    0.2882 C   0  0  0  0  0  0  0  0  0  0  0  0
    1.3897    0.4697   -0.8570 C   0  0  0  0  0  0  0  0  0  0  0  0
    2.7280    0.8148   -1.0233 C   0  0  0  0  0  0  0  0  0  0  0  0
    3.6595    0.5482   -0.0434 C   0  0  0  0  0  0  0  0  0  0  0  0
    5.0338    0.8930   -0.1885 N   0  0  0  0  0  4  0  0  0  0  0  0
    5.8849    0.6610    0.6873 O   0  0  0  0  0  0  0  0  0  0  0  0
    5.4620    1.5084   -1.3360 O   0  0  0  0  0  1  0  0  0  0  0  0
    3.2076   -0.0726    1.1026 C   0  0  0  0  0  0  0  0  0  0  0  0
    1.8753   -0.4134    1.2618 C   0  0  0  0  0  0  0  0  0  0  0  0
   -1.4357   -0.2371   -0.4187 C   0  0  0  0  0  0  0  0  0  0  0  0
   -2.6382   -0.7271    0.0640 C   0  0  0  0  0  0  0  0  0  0  0  0
   -4.0145   -0.7160   -0.4621 C   0  0  0  0  0  0  0  0  0  0  0  0
   -4.1719    0.1257   -1.6828 C   0  0  0  0  0  0  0  0  0  0  0  0
   -3.4313    1.4426   -1.6278 C   0  0  0  0  0  0  0  0  0  0  0  0
   -2.1282    1.3071   -2.3983 C   0  0  0  0  0  0  0  0  0  0  0  0
   -1.2353    0.4521   -1.6446 N   0  0  0  0  0  0  0  0  0  0  0  0
  1  2  1  0
  2  3  1  0
  3  4  2  0
  4  5  1  0
  5  6  1  0
  6  7  2  0
  7  8  1  0
  8  9  2  0
  9 10  1  0
 10 11  2  0
 10 12  1  0
  9 13  1  0
 13 14  2  0
  5 15  1  0
 15 16  2  0
 16 17  1  0
 17 18  1  0
 18 19  1  0
 19 20  1  0
 20 21  1  0
 16  3  1  0
 14  6  1  0
 21 15  1  0
M  CHG  2  10   1  12  -1
M  END
>  <zinc_id>  (1) 
ZINC000003695689

>  <smiles>  (1) 
CCc1nn(-c2ccc([N+](=O)[O-])cc2)c2c1CCCCN2

$$$$
