
     RDKit          3D

 21 23  0  0  0  0  0  0  0  0999 V2000
    4.2940    0.4491    1.3783 C   0  0  0  0  0  0  0  0  0  0  0  0
    5.2156    0.4871    0.2225 C   0  0  0  0  0  0  0  0  0  0  0  0
    6.5983    0.9636    0.5579 C   0  0  0  0  0  0  0  0  0  0  0  0
    5.0823   -0.4229   -0.8708 C   0  0  0  0  0  0  0  0  0  0  0  0
    4.0422   -0.6253   -1.7784 C   0  0  0  0  0  0  0  0  0  0  0  0
    2.7909   -0.9528   -1.6186 O   0  0  0  0  0  0  0  0  0  0  0  0
    1.6930   -0.4173   -1.0489 C   0  0  0  0  0  0  0  0  0  0  0  0
    1.6188    0.7965   -0.4167 C   0  0  0  0  0  0  0  0  0  0  0  0
    0.4442    1.2284    0.1217 C   0  0  0  0  0  0  0  0  0  0  0  0
   -0.6979    0.4360    0.0340 C   0  0  0  0  0  0  0  0  0  0  0  0
   -0.6498   -0.7807   -0.5925 C   0  0  0  0  0  0  0  0  0  0  0  0
    0.5306   -1.2016   -1.1269 C   0  0  0  0  0  0  0  0  0  0  0  0
   -1.9881   -1.3931   -0.5359 C   0  0  0  0  0  0  0  0  0  0  0  0
   -2.3258   -2.5175   -1.0106 O   0  0  0  0  0  0  0  0  0  0  0  0
   -2.8405   -0.4487    0.1729 C   0  0  0  0  0  0  0  0  0  0  0  0
   -4.1750   -0.4812    0.5208 C   0  0  0  0  0  0  0  0  0  0  0  0
   -4.7867    0.5478    1.2066 C   0  0  0  0  0  0  0  0  0  0  0  0
   -6.1418    0.4944    1.5495 O   0  0  0  0  0  0  0  0  0  0  0  0
   -3.9949    1.6281    1.5350 C   0  0  0  0  0  0  0  0  0  0  0  0
   -2.6587    1.6831    1.1980 C   0  0  0  0  0  0  0  0  0  0  0  0
   -2.0508    0.6318    0.5020 C   0  0  0  0  0  0  0  0  0  0  0  0
  1  2  1  0
  2  3  1  0
  2  4  1  0
  4  5  1  0
  5  6  1  0
  6  7  1  0
  7  8  2  0
  8  9  1  0
  9 10  2  0
 10 11  1  0
 11 12  2  0
 11 13  1  0
 13 14  2  0
 13 15  1  0
 15 16  2  0
 16 17  1  0
 17 18  1  0
 17 19  2  0
 19 20  1  0
 20 21  2  0
 12  7  1  0
 21 15  1  0
 21 10  1  0
M  END
>  <zinc_id>  (1) 
ZINC000001514781

>  <smiles>  (1) 
CC(C)CCOc1ccc2c(c1)C(=O)c1cc(O)ccc1-2

$$$$
