
     RDKit          3D

 20 22  0  0  0  0  0  0  0  0999 V2000
   -4.1041   -3.7469   -0.5196 C   0  0  0  0  0  0  0  0  0  0  0  0
   -4.1468   -2.2658   -0.1887 C   0  0  0  0  0  0  0  0  0  0  0  0
   -2.7378   -1.7595   -0.1935 C   0  0  0  0  0  0  0  0  0  0  0  0
   -1.7028   -2.5750   -0.4570 N   0  0  0  0  0  0  0  0  0  0  0  0
   -0.4426   -2.1541   -0.4726 N   0  0  0  0  0  0  0  0  0  0  0  0
   -0.1402   -0.8541   -0.2173 C   0  0  0  0  0  0  0  0  0  0  0  0
    1.2206   -0.3660   -0.2327 C   0  0  0  0  0  0  0  0  0  0  0  0
    1.6864    0.5687   -1.1195 C   0  0  0  0  0  0  0  0  0  0  0  0
    2.9927    0.9543   -1.0568 C   0  0  0  0  0  0  0  0  0  0  0  0
    3.8705    0.4384   -0.1312 C   0  0  0  0  0  0  0  0  0  0  0  0
    5.3094    0.9000   -0.1067 C   0  0  0  0  0  0  0  0  0  0  0  0
    3.4182   -0.4997    0.7646 C   0  0  0  0  0  0  0  0  0  0  0  0
    2.1045   -0.8859    0.7010 C   0  0  0  0  0  0  0  0  0  0  0  0
   -1.1726   -0.0036    0.0544 C   0  0  0  0  0  0  0  0  0  0  0  0
   -0.9200    1.4028    0.3382 C   0  0  0  0  0  0  0  0  0  0  0  0
   -0.4117    2.3951   -0.4568 C   0  0  0  0  0  0  0  0  0  0  0  0
   -0.3489    3.5859    0.2170 C   0  0  0  0  0  0  0  0  0  0  0  0
   -0.8390    3.3172    1.4818 C   0  0  0  0  0  0  0  0  0  0  0  0
   -1.1716    2.0177    1.5325 N   0  0  0  0  0  0  0  0  0  0  0  0
   -2.4644   -0.4695    0.0627 N   0  0  0  0  0  0  0  0  0  0  0  0
  1  2  1  0
  2  3  1  0
  3  4  2  0
  4  5  1  0
  5  6  2  0
  6  7  1  0
  7  8  2  0
  8  9  1  0
  9 10  2  0
 10 11  1  0
 10 12  1  0
 12 13  2  0
  6 14  1  0
 14 15  1  0
 15 16  2  0
 16 17  1  0
 17 18  2  0
 18 19  1  0
 14 20  2  0
 20  3  1  0
 13  7  1  0
 19 15  1  0
M  END
>  <zinc_id>  (1) 
ZINC000001410464

>  <smiles>  (1) 
CCc1nnc(-c2ccc(C)cc2)c(-c2ccc[nH]2)n1

$$$$
