
     RDKit          3D

 18 19  0  0  0  0  0  0  0  0999 V2000
    3.9455    2.1780   -0.4093 C   0  0  0  0  0  0  0  0  0  0  0  0
    4.0169    1.0158    0.7951 C   0  0  1  0  0  0  0  0  0  0  0  0
    2.6704    0.3142    0.3628 C   0  0  0  0  0  0  0  0  0  0  0  0
    2.5488   -0.9343    0.1077 C   0  0  0  0  0  0  0  0  0  0  0  0
    1.3082   -1.5443   -0.2845 N   0  0  0  0  0  0  0  0  0  0  0  0
    0.0450   -1.1916   -0.1251 N   0  0  0  0  0  0  0  0  0  0  0  0
   -0.6559   -0.0845   -0.6384 C   0  0  0  0  0  0  0  0  0  0  0  0
   -0.0350    0.7340   -1.3518 O   0  0  0  0  0  0  0  0  0  0  0  0
   -2.0916    0.1264   -0.3599 C   0  0  0  0  0  0  0  0  0  0  0  0
   -2.9304    0.7111   -1.3029 C   0  0  0  0  0  0  0  0  0  0  0  0
   -4.2790    0.9052   -1.0502 C   0  0  0  0  0  0  0  0  0  0  0  0
   -4.8465    0.5212    0.1592 C   0  0  0  0  0  0  0  0  0  0  0  0
   -6.5655    0.7554    0.4917 Cl  0  0  0  0  0  0  0  0  0  0  0  0
   -4.0100   -0.0574    1.0863 C   0  0  0  0  0  0  0  0  0  0  0  0
   -2.6569   -0.2543    0.8369 C   0  0  0  0  0  0  0  0  0  0  0  0
    3.6459   -1.9373    0.1628 C   0  0  0  0  0  0  0  0  0  0  0  0
    4.8927   -1.3006    0.6233 C   0  0  0  0  0  0  0  0  0  0  0  0
    4.9973    0.0430   -0.1162 C   0  0  0  0  0  0  0  0  0  0  0  0
  2  1  1  6
  2  3  1  0
  3  4  2  0
  4  5  1  0
  5  6  1  0
  6  7  1  0
  7  8  2  0
  7  9  1  0
  9 10  2  0
 10 11  1  0
 11 12  2  0
 12 13  1  0
 12 14  1  0
 14 15  2  0
  4 16  1  0
 16 17  1  0
 17 18  1  0
 18  2  1  0
 15  9  1  0
M  END
>  <zinc_id>  (1) 
ZINC000003233703

>  <smiles>  (1) 
C[C@H]1C=C(NNC(=O)c2ccc(Cl)cc2)CCC1

$$$$
