
     RDKit          3D

 20 23  0  0  0  0  0  0  0  0999 V2000
    5.0581    1.4103    0.8295 N   0  0  0  0  0  0  0  0  0  0  0  0
    4.4038    0.2088    0.4585 C   0  0  0  0  0  0  0  0  0  0  0  0
    5.0667   -0.9650    0.1688 C   0  0  0  0  0  0  0  0  0  0  0  0
    4.3346   -2.0787   -0.1821 C   0  0  0  0  0  0  0  0  0  0  0  0
    2.9522   -2.0237   -0.2441 C   0  0  0  0  0  0  0  0  0  0  0  0
    2.2746   -0.8628    0.0412 C   0  0  0  0  0  0  0  0  0  0  0  0
    0.8200   -0.7916   -0.0202 C   0  0  0  0  0  0  0  0  0  0  0  0
    0.1230   -1.7874   -0.3363 O   0  0  0  0  0  0  0  0  0  0  0  0
    0.1336    0.4158    0.2775 N   0  0  0  0  0  0  0  0  0  0  0  0
   -1.3214    0.5063    0.2213 C   0  0  0  0  0  0  0  0  0  0  0  0
   -1.9821   -0.4592    1.1795 C   0  0  0  0  0  0  0  0  0  0  0  0
   -3.4718   -0.3242    1.0036 C   0  0  0  0  0  0  0  0  0  0  0  0
   -3.9545    1.0855    1.3120 C   0  0  0  0  0  0  0  0  0  0  0  0
   -3.2405    2.0468    0.3832 C   0  0  0  0  0  0  0  0  0  0  0  0
   -3.6581    1.7009   -1.0450 C   0  0  0  0  0  0  0  0  0  0  0  0
   -3.2370    0.2730   -1.3618 C   0  0  0  0  0  0  0  0  0  0  0  0
   -3.8477   -0.7205   -0.4174 C   0  0  0  0  0  0  0  0  0  0  0  0
   -1.7391    0.2053   -1.2086 C   0  0  0  0  0  0  0  0  0  0  0  0
   -1.7342    1.9179    0.5409 C   0  0  0  0  0  0  0  0  0  0  0  0
    3.0199    0.2426    0.3906 C   0  0  0  0  0  0  0  0  0  0  0  0
  1  2  1  0
  2  3  2  0
  3  4  1  0
  4  5  2  0
  5  6  1  0
  6  7  1  0
  7  8  2  0
  7  9  1  0
  9 10  1  0
 10 11  1  0
 11 12  1  0
 12 13  1  0
 13 14  1  0
 14 15  1  0
 15 16  1  0
 16 17  1  0
 16 18  1  0
 14 19  1  0
  6 20  2  0
 20  2  1  0
 18 10  1  0
 19 10  1  0
 17 12  1  0
M  END
>  <zinc_id>  (1) 
ZINC000004414705

>  <smiles>  (1) 
Nc1cccc(C(=O)NC23CC4CC(CC(C4)C2)C3)c1

$$$$
