
     RDKit          3D

 20 22  0  0  0  0  0  0  0  0999 V2000
    1.1250    2.9704   -1.2543 O   0  0  0  0  0  0  0  0  0  0  0  0
    1.1297    1.8178   -0.6954 C   0  0  0  0  0  0  0  0  0  0  0  0
    2.3450    1.1564   -0.3090 N   0  0  0  0  0  0  0  0  0  0  0  0
    1.9230   -0.2310    0.0064 C   0  0  0  0  0  0  0  0  0  0  0  0
    2.8119   -0.6772    1.1578 C   0  0  0  0  0  0  0  0  0  0  0  0
    4.2527   -0.5844    0.6626 C   0  0  0  0  0  0  0  0  0  0  0  0
    4.4628   -1.3548   -0.6116 C   0  0  0  0  0  0  0  0  0  0  0  0
    3.4779   -0.9966   -1.6940 C   0  0  0  0  0  0  0  0  0  0  0  0
    2.1035   -1.2078   -1.1471 C   0  0  0  0  0  0  0  0  0  0  0  0
    0.5238   -0.1058    0.2969 C   0  0  0  0  0  0  0  0  0  0  0  0
   -0.2073   -0.8272    1.0316 O   0  0  0  0  0  0  0  0  0  0  0  0
    0.0372    0.9989   -0.3514 N   0  0  0  0  0  0  0  0  0  0  0  0
   -1.3860    1.2547   -0.9292 C   0  0  0  0  0  0  0  0  0  0  0  0
   -2.3181    0.2547   -0.3790 C   0  0  0  0  0  0  0  0  0  0  0  0
   -2.3798   -1.1408   -0.8503 C   0  0  0  0  0  0  0  0  0  0  0  0
   -3.3007   -1.9314   -0.2150 C   0  0  0  0  0  0  0  0  0  0  0  0
   -4.1325   -1.6109    0.7656 C   0  0  0  0  0  0  0  0  0  0  0  0
   -3.9977   -0.1832    1.1982 C   0  0  0  0  0  0  0  0  0  0  0  0
   -3.1347    0.4495    0.5263 C   0  0  0  0  0  0  0  0  0  0  0  0
   -3.3358    1.9488    0.8265 F   0  0  0  0  0  0  0  0  0  0  0  0
  1  2  2  0
  2  3  1  0
  3  4  1  0
  4  5  1  0
  5  6  1  0
  6  7  1  0
  7  8  1  0
  8  9  1  0
  4 10  1  0
 10 11  2  0
 10 12  1  0
 12 13  1  0
 13 14  1  0
 14 15  2  0
 15 16  1  0
 16 17  2  0
 17 18  1  0
 18 19  2  0
 19 20  1  0
 12  2  1  0
 19 14  1  0
  9  4  1  0
M  END
>  <zinc_id>  (1) 
ZINC000003505438

>  <smiles>  (1) 
O=C1NC2(CCCCC2)C(=O)N1Cc1ccccc1F

$$$$
