
     RDKit          3D

 21 22  0  0  0  0  0  0  0  0999 V2000
   -3.1273   -1.9620    0.6926 C   0  0  0  0  0  0  0  0  0  0  0  0
   -2.1397   -0.8916    0.4272 C   0  0  0  0  0  0  0  0  0  0  0  0
   -2.6290    0.3692    0.2816 C   0  0  0  0  0  0  0  0  0  0  0  0
   -4.1636    0.6534    0.4672 C   0  0  1  0  0  0  0  0  0  0  0  0
   -4.1861    2.1145   -0.2618 C   0  0  0  0  0  0  0  0  0  0  0  0
   -4.7378   -0.0839   -0.7162 O   0  0  0  0  0  0  0  0  0  0  0  0
   -1.7493    1.3887    0.0303 C   0  0  0  0  0  0  0  0  0  0  0  0
   -0.3998    1.1114   -0.0646 C   0  0  0  0  0  0  0  0  0  0  0  0
    0.5279    2.2507   -0.3080 C   0  0  0  0  0  0  0  0  0  0  0  0
   -0.2542    3.4919   -0.6598 C   0  0  0  0  0  0  0  0  0  0  0  0
    1.4264    2.4786    0.8898 C   0  0  0  0  0  0  0  0  0  0  0  0
    0.0739   -0.1864    0.0902 C   0  0  0  0  0  0  0  0  0  0  0  0
    1.4685   -0.5268    0.0344 C   0  0  0  0  0  0  0  0  0  0  0  0
    2.2311   -0.6673    1.1643 C   0  0  0  0  0  0  0  0  0  0  0  0
    3.5817   -0.9877    1.1548 C   0  0  0  0  0  0  0  0  0  0  0  0
    4.1813   -1.1761   -0.0996 C   0  0  0  0  0  0  0  0  0  0  0  0
    5.5534   -1.5086   -0.1518 O   0  0  0  0  0  0  0  0  0  0  0  0
    3.4252   -1.0367   -1.2266 C   0  0  0  0  0  0  0  0  0  0  0  0
    2.0696   -0.7155   -1.2102 C   0  0  0  0  0  0  0  0  0  0  0  0
   -0.8155   -1.2248    0.3425 C   0  0  0  0  0  0  0  0  0  0  0  0
   -0.3368   -2.8908    0.5465 Cl  0  0  0  0  0  0  0  0  0  0  0  0
  1  2  1  0
  2  3  2  0
  3  4  1  0
  4  5  1  6
  4  6  1  0
  3  7  1  0
  7  8  2  0
  8  9  1  0
  9 10  1  0
  9 11  1  0
  8 12  1  0
 12 13  1  0
 13 14  2  0
 14 15  1  0
 15 16  2  0
 16 17  1  0
 16 18  1  0
 18 19  2  0
 12 20  2  0
 20 21  1  0
 20  2  1  0
 19 13  1  0
M  END
>  <zinc_id>  (1) 
ZINC000003952974

>  <smiles>  (1) 
Cc1c([C@@H](C)O)cc(C(C)C)c(-c2ccc(O)cc2)c1Cl

$$$$
