
     RDKit          3D

 21 24  0  0  0  0  0  0  0  0999 V2000
    2.2085   -1.8925    1.5387 C   0  0  0  0  0  0  0  0  0  0  0  0
    2.4630   -0.7442    0.6346 C   0  0  0  0  0  0  0  0  0  0  0  0
    3.7538   -0.6054    0.1583 C   0  0  0  0  0  0  0  0  0  0  0  0
    4.1005    0.4164   -0.6812 C   0  0  0  0  0  0  0  0  0  0  0  0
    5.3651    0.6211   -1.1977 O   0  0  0  0  0  0  0  0  0  0  0  0
    3.1167    1.3074   -1.0385 C   0  0  0  0  0  0  0  0  0  0  0  0
    1.7970    1.1824   -0.5635 C   0  0  0  0  0  0  0  0  0  0  0  0
    1.4834    0.1718    0.2579 C   0  0  0  0  0  0  0  0  0  0  0  0
    0.1271   -0.1447    0.8702 C   0  0  2  0  0  0  0  0  0  0  0  0
   -0.2107   -1.4271   -0.0586 C   0  0  0  0  0  0  0  0  0  0  0  0
   -1.4499   -1.7184    0.7871 C   0  0  0  0  0  0  0  0  0  0  0  0
   -2.5048   -0.9977    0.0873 C   0  0  1  0  0  0  0  0  0  0  0  0
   -2.7645   -2.0137   -1.0336 C   0  0  0  0  0  0  0  0  0  0  0  0
   -3.6893   -0.5278    0.6006 C   0  0  0  0  0  0  0  0  0  0  0  0
   -4.7173   -1.0529    0.9196 O   0  0  0  0  0  0  0  0  0  0  0  0
   -3.5923    0.9470    0.7635 C   0  0  0  0  0  0  0  0  0  0  0  0
   -3.0685    1.2354   -0.6303 C   0  0  0  0  0  0  0  0  0  0  0  0
   -1.8413    0.2051   -0.7843 C   0  0  1  0  0  0  0  0  0  0  0  0
   -0.9471    0.9597    0.4208 C   0  0  2  0  0  0  0  0  0  0  0  0
   -0.3956    1.9905   -0.4891 C   0  0  0  0  0  0  0  0  0  0  0  0
    0.7663    2.0876   -0.9075 C   0  0  0  0  0  0  0  0  0  0  0  0
  1  2  1  0
  2  3  2  0
  3  4  1  0
  4  5  1  0
  4  6  2  0
  6  7  1  0
  7  8  2  0
  8  9  1  0
  9 10  1  6
 10 11  1  0
 11 12  1  0
 12 13  1  6
 12 14  1  0
 14 15  2  0
 14 16  1  0
 16 17  1  0
 18 17  1  1
 18 19  1  0
 19 20  1  6
 20 21  2  0
  8  2  1  0
 19  9  1  0
 21  7  1  0
 18 12  1  0
M  END
>  <zinc_id>  (1) 
ZINC000001041207

>  <smiles>  (1) 
Cc1cc(O)cc2c1[C@@H]1CC[C@@]3(C)C(=O)CC[C@H]3[C@@H]1C=C2

$$$$
