
     RDKit          3D

 20 21  0  0  0  0  0  0  0  0999 V2000
   -1.3756    1.8180   -2.9596 C   0  0  0  0  0  0  0  0  0  0  0  0
   -1.1661    1.0407   -1.8066 O   0  0  0  0  0  0  0  0  0  0  0  0
   -2.2471    0.5319   -1.0853 C   0  0  0  0  0  0  0  0  0  0  0  0
   -3.5385    0.7617   -1.4599 C   0  0  0  0  0  0  0  0  0  0  0  0
   -4.5762    0.2408   -0.7196 C   0  0  0  0  0  0  0  0  0  0  0  0
   -4.3002   -0.5211    0.4126 C   0  0  0  0  0  0  0  0  0  0  0  0
   -5.6469   -1.1515    1.3061 Cl  0  0  0  0  0  0  0  0  0  0  0  0
   -2.9784   -0.7408    0.7730 C   0  0  0  0  0  0  0  0  0  0  0  0
   -1.9425   -0.2185    0.0306 C   0  0  0  0  0  0  0  0  0  0  0  0
   -0.5322   -0.4504    0.4114 C   0  0  0  0  0  0  0  0  0  0  0  0
   -0.2456   -1.1333    1.4272 O   0  0  0  0  0  0  0  0  0  0  0  0
    0.4987    0.0925   -0.3616 N   0  0  0  0  0  0  0  0  0  0  0  0
    1.8838   -0.0651   -0.0910 C   0  0  0  0  0  0  0  0  0  0  0  0
    2.3897   -0.7759    0.9718 C   0  0  0  0  0  0  0  0  0  0  0  0
    3.7589   -0.8975    1.1889 C   0  0  0  0  0  0  0  0  0  0  0  0
    4.6611   -0.3012    0.3336 C   0  0  0  0  0  0  0  0  0  0  0  0
    6.1395   -0.4249    0.5567 C   0  0  0  0  0  0  0  0  0  0  0  0
    4.1490    0.4095   -0.7294 C   0  0  0  0  0  0  0  0  0  0  0  0
    2.7780    0.5326   -0.9487 C   0  0  0  0  0  0  0  0  0  0  0  0
    2.2906    1.2524   -2.0244 O   0  0  0  0  0  0  0  0  0  0  0  0
  1  2  1  0
  2  3  1  0
  3  4  2  0
  4  5  1  0
  5  6  2  0
  6  7  1  0
  6  8  1  0
  8  9  2  0
  9 10  1  0
 10 11  2  0
 10 12  1  0
 12 13  1  0
 13 14  2  0
 14 15  1  0
 15 16  2  0
 16 17  1  0
 16 18  1  0
 18 19  2  0
 19 20  1  0
  9  3  1  0
 19 13  1  0
M  END
>  <zinc_id>  (1) 
ZINC000003569979

>  <smiles>  (1) 
COc1ccc(Cl)cc1C(=O)Nc1ccc(C)cc1O

$$$$
