
     RDKit          3D

 22 23  0  0  0  0  0  0  0  0999 V2000
    1.6683   -3.0725    0.9194 C   0  0  0  0  0  0  0  0  0  0  0  0
    2.6507   -2.0182    0.5546 C   0  0  0  0  0  0  0  0  0  0  0  0
    3.9847   -2.1043    0.8850 C   0  0  0  0  0  0  0  0  0  0  0  0
    4.8988   -1.1301    0.5473 C   0  0  0  0  0  0  0  0  0  0  0  0
    4.4322   -0.0351   -0.1498 C   0  0  0  0  0  0  0  0  0  0  0  0
    3.0958    0.1040   -0.5095 C   0  0  0  0  0  0  0  0  0  0  0  0
    2.5883    1.2751   -1.2611 C   0  0  0  0  0  0  0  0  0  0  0  0
    3.8115    2.0884   -1.7107 C   0  0  0  0  0  0  0  0  0  0  0  0
    1.8135    2.2173   -0.3281 C   0  0  0  0  0  0  0  0  0  0  0  0
    2.2352   -0.8940   -0.1473 C   0  0  0  0  0  0  0  0  0  0  0  0
    0.8685   -0.8187   -0.4965 N   0  0  0  0  0  0  0  0  0  0  0  0
   -0.1516   -0.2943    0.3124 C   0  0  0  0  0  0  0  0  0  0  0  0
    0.1644    0.1443    1.4508 O   0  0  0  0  0  0  0  0  0  0  0  0
   -1.5587   -0.2446   -0.1335 C   0  0  0  0  0  0  0  0  0  0  0  0
   -2.0328   -0.9873   -1.1851 C   0  0  0  0  0  0  0  0  0  0  0  0
   -3.3502   -0.9224   -1.6025 C   0  0  0  0  0  0  0  0  0  0  0  0
   -4.2085   -0.0803   -0.9331 C   0  0  0  0  0  0  0  0  0  0  0  0
   -3.7601    0.6798    0.1300 C   0  0  0  0  0  0  0  0  0  0  0  0
   -4.6563    1.5533    0.8098 N   0  0  0  0  0  4  0  0  0  0  0  0
   -5.8287    1.6285    0.4593 O   0  0  0  0  0  0  0  0  0  0  0  0
   -4.2384    2.3222    1.8577 O   0  0  0  0  0  1  0  0  0  0  0  0
   -2.4264    0.5889    0.5228 C   0  0  0  0  0  0  0  0  0  0  0  0
  1  2  1  0
  2  3  2  0
  3  4  1  0
  4  5  2  0
  5  6  1  0
  6  7  1  0
  7  8  1  0
  7  9  1  0
  6 10  2  0
 10 11  1  0
 11 12  1  0
 12 13  2  0
 12 14  1  0
 14 15  2  0
 15 16  1  0
 16 17  2  0
 17 18  1  0
 18 19  1  0
 19 20  2  0
 19 21  1  0
 18 22  2  0
 10  2  1  0
 22 14  1  0
M  CHG  2  19   1  21  -1
M  END
>  <zinc_id>  (1) 
ZINC000000562973

>  <smiles>  (1) 
Cc1cccc(C(C)C)c1NC(=O)c1cccc([N+](=O)[O-])c1

$$$$
