
     RDKit          3D

 22 23  0  0  0  0  0  0  0  0999 V2000
    1.6822   -2.7866   -0.0161 C   0  0  0  0  0  0  0  0  0  0  0  0
    0.2006   -2.4502    0.0136 C   0  0  0  0  0  0  0  0  0  0  0  0
   -0.0806   -1.2740    0.4473 C   0  0  0  0  0  0  0  0  0  0  0  0
    0.9639   -0.3683    0.8413 C   0  0  0  0  0  0  0  0  0  0  0  0
    0.7658    0.7813    1.2690 O   0  0  0  0  0  0  0  0  0  0  0  0
    2.2605   -0.7645    0.7522 O   0  0  0  0  0  0  0  0  0  0  0  0
    3.3580    0.0168    1.1014 C   0  0  0  0  0  0  0  0  0  0  0  0
    3.4691    1.2954    0.3173 C   0  0  0  0  0  0  0  0  0  0  0  0
    4.6477    2.1189    0.7029 C   0  0  0  0  0  0  0  0  0  0  0  0
    3.3300    1.1248   -1.1519 C   0  0  0  0  0  0  0  0  0  0  0  0
   -1.5711   -0.8927    0.7491 C   0  0  1  0  0  0  0  0  0  0  0  0
   -1.6005    0.5873    0.3182 C   0  0  0  0  0  0  0  0  0  0  0  0
   -1.8983    1.4781    1.3040 C   0  0  0  0  0  0  0  0  0  0  0  0
   -1.9637    2.8524    1.0733 C   0  0  0  0  0  0  0  0  0  0  0  0
   -1.7153    3.2939   -0.1988 C   0  0  0  0  0  0  0  0  0  0  0  0
   -1.4162    2.4294   -1.2008 C   0  0  0  0  0  0  0  0  0  0  0  0
   -1.1700    2.9016   -2.4753 O   0  0  0  0  0  0  0  0  0  0  0  0
   -1.3618    1.0630   -0.9240 C   0  0  0  0  0  0  0  0  0  0  0  0
   -2.3212   -1.5608   -0.3084 N   0  0  0  0  0  0  0  0  0  0  0  0
   -2.0171   -2.8483   -0.7403 C   0  0  0  0  0  0  0  0  0  0  0  0
   -2.8606   -3.6386   -1.2741 O   0  0  0  0  0  0  0  0  0  0  0  0
   -0.7012   -3.3591   -0.6000 N   0  0  0  0  0  0  0  0  0  0  0  0
  1  2  1  0
  2  3  2  0
  3  4  1  0
  4  5  2  0
  4  6  1  0
  6  7  1  0
  7  8  1  0
  8  9  1  0
  8 10  1  0
  3 11  1  0
 11 12  1  6
 12 13  2  0
 13 14  1  0
 14 15  2  0
 15 16  1  0
 16 17  1  0
 16 18  2  0
 11 19  1  0
 19 20  1  0
 20 21  2  0
 20 22  1  0
 22  2  1  0
 18 12  1  0
M  END
>  <zinc_id>  (1) 
ZINC000000071496

>  <smiles>  (1) 
CC1=C(C(=O)OCC(C)C)[C@@H](c2cccc(O)c2)NC(=O)N1

$$$$
