
     RDKit          3D

 18 20  0  0  0  0  0  0  0  0999 V2000
   -5.8934   -1.3073    0.6669 N   0  0  0  0  0  0  0  0  0  0  0  0
   -4.9010   -0.3844    0.1566 C   0  0  0  0  0  0  0  0  0  0  0  0
   -3.5928   -0.5418    0.2380 N   0  0  0  0  0  0  0  0  0  0  0  0
   -2.8088    0.3642   -0.2622 C   0  0  0  0  0  0  0  0  0  0  0  0
   -1.3222    0.2808   -0.2221 C   0  0  0  0  0  0  0  0  0  0  0  0
   -0.5234    1.2497   -0.7569 C   0  0  0  0  0  0  0  0  0  0  0  0
    0.8551    1.1885   -0.7286 C   0  0  0  0  0  0  0  0  0  0  0  0
    1.4823    0.1110   -0.1396 C   0  0  0  0  0  0  0  0  0  0  0  0
    2.9262   -0.0696   -0.0459 C   0  0  0  0  0  0  0  0  0  0  0  0
    3.6241   -0.4258   -1.2954 C   0  0  0  0  0  0  0  0  0  0  0  0
    4.8969   -1.1909   -0.9277 C   0  0  0  0  0  0  0  0  0  0  0  0
    5.0955   -1.2032    0.5832 C   0  0  0  0  0  0  0  0  0  0  0  0
    5.0276    0.2219    1.1388 C   0  0  0  0  0  0  0  0  0  0  0  0
    3.6415    0.8242    0.8818 C   0  0  0  0  0  0  0  0  0  0  0  0
    0.6686   -0.8656    0.3995 C   0  0  0  0  0  0  0  0  0  0  0  0
   -0.7037   -0.8041    0.3710 C   0  0  0  0  0  0  0  0  0  0  0  0
   -3.4071    1.4510   -0.8564 C   0  0  0  0  0  0  0  0  0  0  0  0
   -5.0653    1.1014   -0.6583 S   0  0  0  0  0  0  0  0  0  0  0  0
  1  2  1  0
  2  3  2  0
  3  4  1  0
  4  5  1  0
  5  6  2  0
  6  7  1  0
  7  8  2  0
  8  9  1  0
  9 10  1  0
 10 11  1  0
 11 12  1  0
 12 13  1  0
 13 14  1  0
  8 15  1  0
 15 16  2  0
  4 17  2  0
 17 18  1  0
 18  2  1  0
 16  5  1  0
 14  9  1  0
M  END
>  <zinc_id>  (1) 
ZINC000000392237

>  <smiles>  (1) 
Nc1nc(-c2ccc(C3CCCCC3)cc2)cs1

$$$$
