
     RDKit          3D

 20 23  0  0  0  0  0  0  0  0999 V2000
    0.7217   -1.9716    1.5361 O   0  0  0  0  0  0  0  0  0  0  0  0
    0.2906   -1.1069    0.7216 C   0  0  0  0  0  0  0  0  0  0  0  0
   -1.0973   -0.8490    0.5704 N   0  0  0  0  0  0  0  0  0  0  0  0
   -1.4893    0.6840    0.4347 C   0  0  2  0  0  0  0  0  0  0  0  0
   -2.9766    0.4053   -0.1329 C   0  0  0  0  0  0  0  0  0  0  0  0
   -3.9176    1.1916    0.4749 C   0  0  0  0  0  0  0  0  0  0  0  0
   -5.2344    1.0079    0.0358 C   0  0  0  0  0  0  0  0  0  0  0  0
   -5.4773    0.0688   -0.9544 C   0  0  0  0  0  0  0  0  0  0  0  0
   -4.4503   -0.6572   -1.4850 C   0  0  0  0  0  0  0  0  0  0  0  0
   -3.1669   -0.4812   -1.0601 N   0  0  0  0  0  0  0  0  0  0  0  0
   -0.8013    0.7697   -1.0273 N   0  0  0  0  0  0  0  0  0  0  0  0
    0.6141    0.5729   -0.9420 C   0  0  0  0  0  0  0  0  0  0  0  0
    1.9398    1.3040   -1.7691 S   0  0  0  0  0  0  0  0  0  0  0  0
    3.2241    0.4538   -1.0409 C   0  0  0  0  0  0  0  0  0  0  0  0
    2.5707   -0.3825   -0.1657 C   0  0  0  0  0  0  0  0  0  0  0  0
    1.2358   -0.3190   -0.1177 C   0  0  0  0  0  0  0  0  0  0  0  0
    3.5358   -1.2620    0.6184 C   0  0  0  0  0  0  0  0  0  0  0  0
    4.4370   -0.2339    1.3059 C   0  0  0  0  0  0  0  0  0  0  0  0
    5.3261    0.4069    0.2725 C   0  0  0  0  0  0  0  0  0  0  0  0
    4.7153    0.3984   -1.1101 C   0  0  0  0  0  0  0  0  0  0  0  0
  1  2  2  0
  2  3  1  0
  3  4  1  0
  4  5  1  6
  5  6  2  0
  6  7  1  0
  7  8  2  0
  8  9  1  0
  9 10  2  0
  4 11  1  0
 11 12  1  0
 12 13  1  0
 13 14  1  0
 14 15  2  0
 15 16  1  0
 15 17  1  0
 17 18  1  0
 18 19  1  0
 19 20  1  0
 16  2  1  0
 10  5  1  0
 16 12  2  0
 20 14  1  0
M  END
>  <zinc_id>  (1) 
ZINC000000565723

>  <smiles>  (1) 
O=C1N[C@H](c2ccccn2)Nc2sc3c(c21)CCCC3

$$$$
