
     RDKit          3D

 20 22  0  0  0  0  0  0  0  0999 V2000
    6.5640    1.6129   -0.2615 C   0  0  0  0  0  0  0  0  0  0  0  0
    5.9972    0.1888   -0.2110 C   0  0  0  0  0  0  0  0  0  0  0  0
    4.5742    0.3643   -0.1259 O   0  0  0  0  0  0  0  0  0  0  0  0
    3.7051   -0.6836   -0.0611 C   0  0  0  0  0  0  0  0  0  0  0  0
    4.1035   -1.8609   -0.0723 O   0  0  0  0  0  0  0  0  0  0  0  0
    2.2541   -0.4558    0.0251 C   0  0  0  0  0  0  0  0  0  0  0  0
    0.9850   -1.5928    0.1153 S   0  0  0  0  0  0  0  0  0  0  0  0
   -0.3338   -0.4993    0.1838 C   0  0  0  0  0  0  0  0  0  0  0  0
   -1.7809   -0.7874    0.2755 C   0  0  0  0  0  0  0  0  0  0  0  0
   -2.2796   -2.0849    0.3204 C   0  0  0  0  0  0  0  0  0  0  0  0
   -3.6320   -1.9424    0.4015 N   0  0  0  0  0  0  0  0  0  0  0  0
   -3.9679   -0.6459    0.4076 C   0  0  0  0  0  0  0  0  0  0  0  0
   -5.2218   -0.0273    0.4774 C   0  0  0  0  0  0  0  0  0  0  0  0
   -5.2857    1.3341    0.4661 C   0  0  0  0  0  0  0  0  0  0  0  0
   -4.1518    2.0848    0.3885 C   0  0  0  0  0  0  0  0  0  0  0  0
   -2.8967    1.4549    0.3188 C   0  0  0  0  0  0  0  0  0  0  0  0
   -2.8137    0.0924    0.3288 C   0  0  0  0  0  0  0  0  0  0  0  0
    0.2762    0.6778    0.1334 N   0  0  0  0  0  0  0  0  0  0  0  0
    1.5660    0.7305    0.0540 C   0  0  0  0  0  0  0  0  0  0  0  0
    2.3386    2.0397   -0.0078 C   0  0  0  0  0  0  0  0  0  0  0  0
  1  2  1  0
  2  3  1  0
  3  4  1  0
  4  5  2  0
  4  6  1  0
  6  7  1  0
  7  8  1  0
  8  9  1  0
  9 10  2  0
 10 11  1  0
 11 12  1  0
 12 13  2  0
 13 14  1  0
 14 15  2  0
 15 16  1  0
 16 17  2  0
  8 18  2  0
 18 19  1  0
 19 20  1  0
 19  6  2  0
 17  9  1  0
 17 12  1  0
M  END
>  <zinc_id>  (1) 
ZINC000004294191

>  <smiles>  (1) 
CCOC(=O)c1sc(-c2c[nH]c3ccccc23)nc1C

$$$$
