
     RDKit          3D

 20 22  0  0  0  0  0  0  0  0999 V2000
    4.7818    3.3808   -0.1543 C   0  0  0  0  0  0  0  0  0  0  0  0
    4.4852    2.2247   -0.0849 C   0  0  0  0  0  0  0  0  0  0  0  0
    4.1478    0.8120   -0.0050 C   0  0  0  0  0  0  0  0  0  0  0  0
    2.7491    0.5996    0.0220 O   0  0  0  0  0  0  0  0  0  0  0  0
    2.3049   -0.7121    0.0976 C   0  0  0  0  0  0  0  0  0  0  0  0
    3.1425   -1.6454    0.1386 O   0  0  0  0  0  0  0  0  0  0  0  0
    0.8573   -1.0172    0.1301 C   0  0  0  0  0  0  0  0  0  0  0  0
    0.4821   -2.3386    0.2055 C   0  0  0  0  0  0  0  0  0  0  0  0
    1.5302   -3.3859    0.2503 C   0  0  0  0  0  0  0  0  0  0  0  0
   -0.8328   -2.5698    0.2325 N   0  0  0  0  0  0  0  0  0  0  0  0
   -1.7452   -1.5541    0.1879 C   0  0  0  0  0  0  0  0  0  0  0  0
   -3.4436   -1.5439    0.2065 S   0  0  0  0  0  0  0  0  0  0  0  0
   -3.7145    0.1380    0.1192 C   0  0  0  0  0  0  0  0  0  0  0  0
   -2.4578    0.6592    0.0766 C   0  0  0  0  0  0  0  0  0  0  0  0
   -1.4220   -0.2289    0.1129 C   0  0  0  0  0  0  0  0  0  0  0  0
   -0.0325    0.0260    0.0837 C   0  0  0  0  0  0  0  0  0  0  0  0
    0.4955    1.3340    0.0075 N   0  0  0  0  0  0  0  0  0  0  0  0
   -2.6114    2.1825   -0.0136 C   0  0  0  0  0  0  0  0  0  0  0  0
   -3.9488    2.4063    0.5970 C   0  0  0  0  0  0  0  0  0  0  0  0
   -4.7677    1.2328    0.0793 C   0  0  0  0  0  0  0  0  0  0  0  0
  1  2  3  0
  2  3  1  0
  3  4  1  0
  4  5  1  0
  5  6  2  0
  5  7  1  0
  7  8  2  0
  8  9  1  0
  8 10  1  0
 10 11  2  0
 11 12  1  0
 12 13  1  0
 13 14  2  0
 14 15  1  0
 15 16  2  0
 16 17  1  0
 14 18  1  0
 18 19  1  0
 19 20  1  0
 16  7  1  0
 15 11  1  0
 20 13  1  0
M  END
>  <zinc_id>  (1) 
ZINC000001536668

>  <smiles>  (1) 
C#CCOC(=O)c1c(C)nc2sc3c(c2c1N)CCC3

$$$$
