
     RDKit          3D

 19 21  0  0  0  0  0  0  0  0999 V2000
    5.9030    2.0328    0.9630 C   0  0  0  0  0  0  0  0  0  0  0  0
    5.7786    0.7715    0.1334 C   0  0  0  0  0  0  0  0  0  0  0  0
    4.4445    0.6311   -0.2595 O   0  0  0  0  0  0  0  0  0  0  0  0
    3.4605    0.5220    0.7007 C   0  0  0  0  0  0  0  0  0  0  0  0
    3.7302    0.5453    1.9259 O   0  0  0  0  0  0  0  0  0  0  0  0
    2.0693    0.3755    0.2972 C   0  0  0  0  0  0  0  0  0  0  0  0
    1.7537    0.3479   -1.0450 C   0  0  0  0  0  0  0  0  0  0  0  0
    0.4621    0.2123   -1.5029 C   0  0  0  0  0  0  0  0  0  0  0  0
   -0.5685    0.0983   -0.5584 C   0  0  0  0  0  0  0  0  0  0  0  0
   -0.2678    0.1244    0.7833 C   0  0  0  0  0  0  0  0  0  0  0  0
    1.0447    0.2623    1.2074 C   0  0  0  0  0  0  0  0  0  0  0  0
   -1.5437   -0.0151    1.5828 C   0  0  0  0  0  0  0  0  0  0  0  0
   -2.5767   -0.1204    0.5240 C   0  0  0  0  0  0  0  0  0  0  0  0
   -3.9657   -0.2687    0.6001 C   0  0  0  0  0  0  0  0  0  0  0  0
   -4.7068   -0.3425   -0.5597 C   0  0  0  0  0  0  0  0  0  0  0  0
   -6.1169   -0.4935   -0.3737 N   0  0  0  0  0  0  0  0  0  0  0  0
   -4.1215   -0.2747   -1.7845 C   0  0  0  0  0  0  0  0  0  0  0  0
   -2.7607   -0.1292   -1.9054 C   0  0  0  0  0  0  0  0  0  0  0  0
   -2.0184   -0.0554   -0.7287 C   0  0  0  0  0  0  0  0  0  0  0  0
  1  2  1  0
  2  3  1  0
  3  4  1  0
  4  5  2  0
  4  6  1  0
  6  7  2  0
  7  8  1  0
  8  9  2  0
  9 10  1  0
 10 11  2  0
 10 12  1  0
 12 13  1  0
 13 14  2  0
 14 15  1  0
 15 16  1  0
 15 17  2  0
 17 18  1  0
 18 19  2  0
 11  6  1  0
 19 13  1  0
 19  9  1  0
M  END
>  <zinc_id>  (1) 
ZINC000001704165

>  <smiles>  (1) 
CCOC(=O)c1ccc2c(c1)Cc1cc(N)ccc1-2

$$$$
