
     RDKit          3D

 27 30  0  0  0  0  0  0  0  0999 V2000
    7.6290    2.5115    0.7353 C   0  0  0  0  0  0  0  0  0  0  0  0
    8.3582    1.2555    0.2774 C   0  0  0  0  0  0  0  0  0  0  0  0
    7.4663    0.3362   -0.5020 C   0  0  0  0  0  0  0  0  0  0  0  0
    6.3270   -0.0834    0.3241 N   0  0  0  0  0  0  0  0  0  0  0  0
    5.3573   -0.9617   -0.2307 C   0  0  0  0  0  0  0  0  0  0  0  0
    5.5288   -1.3397   -1.4199 O   0  0  0  0  0  0  0  0  0  0  0  0
    4.1821   -1.4227    0.5536 C   0  0  0  0  0  0  0  0  0  0  0  0
    3.3367   -2.3030   -0.2065 N   0  0  0  0  0  0  0  0  0  0  0  0
    2.2258   -2.6813    0.6735 C   0  0  0  0  0  0  0  0  0  0  0  0
    0.9650   -1.9799    0.2985 C   0  0  0  0  0  0  0  0  0  0  0  0
    1.1357   -0.4830    0.1685 C   0  0  0  0  0  0  0  0  0  0  0  0
   -0.1128    0.1013   -0.3928 C   0  0  0  0  0  0  0  0  0  0  0  0
   -1.3559   -0.0695    0.0727 N   0  0  0  0  0  0  0  0  0  0  0  0
   -2.1865    0.6228   -0.7138 C   0  0  0  0  0  0  0  0  0  0  0  0
   -3.6464    0.7440   -0.6050 C   0  0  0  0  0  0  0  0  0  0  0  0
   -4.3396    1.4989   -1.5027 C   0  0  0  0  0  0  0  0  0  0  0  0
   -5.7250    1.6372   -1.4311 C   0  0  0  0  0  0  0  0  0  0  0  0
   -6.3928    0.9901   -0.4248 C   0  0  0  0  0  0  0  0  0  0  0  0
   -5.7026    0.2256    0.4865 C   0  0  0  0  0  0  0  0  0  0  0  0
   -4.3249    0.1062    0.3906 C   0  0  0  0  0  0  0  0  0  0  0  0
   -6.6152   -0.3230    1.4048 O   0  0  0  0  0  0  0  0  0  0  0  0
   -7.8249    0.4402    1.2947 C   0  0  0  0  0  0  0  0  0  0  0  0
   -7.7437    0.8960   -0.0432 O   0  0  0  0  0  0  0  0  0  0  0  0
   -1.4005    1.1896   -1.6325 N   0  0  0  0  0  0  0  0  0  0  0  0
   -0.1857    0.8762   -1.4336 O   0  0  0  0  0  0  0  0  0  0  0  0
    2.3069   -0.2265   -0.7498 C   0  0  0  0  0  0  0  0  0  0  0  0
    2.7377   -1.5577   -1.3252 C   0  0  0  0  0  0  0  0  0  0  0  0
  1  2  1  0
  2  3  1  0
  3  4  1  0
  4  5  1  0
  5  6  2  0
  5  7  1  0
  7  8  1  0
  8  9  1  0
  9 10  1  0
 10 11  1  0
 11 12  1  0
 12 13  2  0
 13 14  1  0
 14 15  1  0
 15 16  2  0
 16 17  1  0
 17 18  2  0
 18 19  1  0
 19 20  2  0
 19 21  1  0
 21 22  1  0
 22 23  1  0
 14 24  2  0
 24 25  1  0
 11 26  1  0
 26 27  1  0
 27  8  1  0
 25 12  1  0
 20 15  1  0
 23 18  1  0
M  END
>  <zinc_id>  (1) 
ZINC000000033888

>  <smiles>  (1) 
CCCNC(=O)CN1CCC(c2nc(-c3ccc4c(c3)OCO4)no2)CC1

$$$$
