
     RDKit          3D

 22 25  0  0  0  0  0  0  0  0999 V2000
    2.8073    2.0876   -1.2874 C   0  0  0  0  0  0  0  0  0  0  0  0
    3.5060    0.9129   -0.7527 C   0  0  0  0  0  0  0  0  0  0  0  0
    4.8897    0.8922   -0.8190 C   0  0  0  0  0  0  0  0  0  0  0  0
    5.5581   -0.1975   -0.3241 C   0  0  0  0  0  0  0  0  0  0  0  0
    4.8458   -1.2426    0.2254 C   0  0  0  0  0  0  0  0  0  0  0  0
    3.4499   -1.2016    0.2825 C   0  0  0  0  0  0  0  0  0  0  0  0
    2.7746   -0.1142   -0.2110 C   0  0  0  0  0  0  0  0  0  0  0  0
    1.3267   -0.0712   -0.1520 C   0  0  0  0  0  0  0  0  0  0  0  0
    0.5937    0.9616   -0.6156 N   0  0  0  0  0  0  0  0  0  0  0  0
   -0.7586    0.9665   -0.5434 C   0  0  0  0  0  0  0  0  0  0  0  0
   -1.9661    2.0768   -1.0185 S   0  0  0  0  0  0  0  0  0  0  0  0
   -3.3615    1.2067   -0.5168 C   0  0  0  0  0  0  0  0  0  0  0  0
   -2.8274    0.0775    0.0047 C   0  0  0  0  0  0  0  0  0  0  0  0
   -1.4892   -0.0581   -0.0030 C   0  0  0  0  0  0  0  0  0  0  0  0
   -0.7060   -1.1234    0.4737 C   0  0  0  0  0  0  0  0  0  0  0  0
   -1.2037   -2.1510    1.0027 O   0  0  0  0  0  0  0  0  0  0  0  0
    0.6192   -1.0813    0.3800 N   0  0  0  0  0  0  0  0  0  0  0  0
    1.3933   -2.1670    0.8672 N   0  0  0  0  0  0  0  0  0  0  0  0
   -3.8866   -0.8905    0.5326 C   0  0  0  0  0  0  0  0  0  0  0  0
   -5.0457   -0.8822   -0.4538 C   0  0  0  0  0  0  0  0  0  0  0  0
   -5.7150    0.4423   -0.2836 C   0  0  0  0  0  0  0  0  0  0  0  0
   -4.8045    1.5566   -0.6067 C   0  0  0  0  0  0  0  0  0  0  0  0
  1  2  1  0
  2  3  2  0
  3  4  1  0
  4  5  2  0
  5  6  1  0
  6  7  2  0
  7  8  1  0
  8  9  2  0
  9 10  1  0
 10 11  1  0
 11 12  1  0
 12 13  2  0
 13 14  1  0
 14 15  1  0
 15 16  2  0
 15 17  1  0
 17 18  1  0
 13 19  1  0
 19 20  1  0
 20 21  1  0
 21 22  1  0
  7  2  1  0
 17  8  1  0
 14 10  2  0
 22 12  1  0
M  END
>  <zinc_id>  (1) 
ZINC000003151515

>  <smiles>  (1) 
Cc1ccccc1-c1nc2sc3c(c2c(=O)n1N)CCCC3

$$$$
