
     RDKit          3D

 20 22  0  0  0  0  0  0  0  0999 V2000
   -3.8942    2.9414    0.3842 C   0  0  0  0  0  0  0  0  0  0  0  0
   -3.3775    1.5466    0.2841 C   0  0  0  0  0  0  0  0  0  0  0  0
   -4.2333    0.4525    0.3251 C   0  0  0  0  0  0  0  0  0  0  0  0
   -3.8141   -0.8420    0.2379 C   0  0  0  0  0  0  0  0  0  0  0  0
   -2.4522   -1.0917    0.0996 C   0  0  0  0  0  0  0  0  0  0  0  0
   -1.9597   -2.3325    0.0074 N   0  0  0  0  0  0  0  0  0  0  0  0
   -0.6470   -2.5642   -0.1256 C   0  0  0  0  0  0  0  0  0  0  0  0
   -0.0810   -3.9404   -0.2297 C   0  0  0  0  0  0  0  0  0  0  0  0
    0.2472   -1.5214   -0.1722 C   0  0  0  0  0  0  0  0  0  0  0  0
   -0.1981   -0.2329   -0.0828 C   0  0  0  0  0  0  0  0  0  0  0  0
    0.7258    0.8571   -0.1305 N   0  0  0  0  0  0  0  0  0  0  0  0
    2.1168    0.6632   -0.2695 C   0  0  0  0  0  0  0  0  0  0  0  0
    2.5823   -0.6379   -0.3613 C   0  0  0  0  0  0  0  0  0  0  0  0
    3.9177   -0.9063   -0.4978 C   0  0  0  0  0  0  0  0  0  0  0  0
    4.8140    0.1655   -0.5436 C   0  0  0  0  0  0  0  0  0  0  0  0
    4.3512    1.4636   -0.4522 C   0  0  0  0  0  0  0  0  0  0  0  0
    2.9924    1.7256   -0.3137 C   0  0  0  0  0  0  0  0  0  0  0  0
    2.4991    3.0252   -0.2194 O   0  0  0  0  0  0  0  0  0  0  0  0
   -1.5549   -0.0311    0.0533 C   0  0  0  0  0  0  0  0  0  0  0  0
   -2.0346    1.2595    0.1462 C   0  0  0  0  0  0  0  0  0  0  0  0
  1  2  1  0
  2  3  2  0
  3  4  1  0
  4  5  2  0
  5  6  1  0
  6  7  2  0
  7  8  1  0
  7  9  1  0
  9 10  2  0
 10 11  1  0
 11 12  1  0
 12 13  2  0
 13 14  1  0
 14 15  2  0
 15 16  1  0
 16 17  2  0
 17 18  1  0
 10 19  1  0
 19 20  2  0
 20  2  1  0
 19  5  1  0
 17 12  1  0
M  END
>  <zinc_id>  (1) 
ZINC000000534925

>  <smiles>  (1) 
Cc1ccc2nc(C)cc(Nc3ccccc3O)c2c1

$$$$
