
     RDKit          3D

 21 23  0  0  0  0  0  0  0  0999 V2000
   -0.8565    2.3439    0.6290 C   0  0  0  0  0  0  0  0  0  0  0  0
    0.4170    1.5988    0.3715 C   0  0  0  0  0  0  0  0  0  0  0  0
    1.3799    1.8450    1.1425 C   0  0  0  0  0  0  0  0  0  0  0  0
    2.8283    1.1341    0.9957 C   0  0  2  0  0  0  0  0  0  0  0  0
    3.2143    1.9652   -0.3384 C   0  0  0  0  0  0  0  0  0  0  0  0
    2.2409   -0.2332    0.2602 C   0  0  1  0  0  0  0  0  0  0  0  0
    3.5638   -0.9301    0.0734 C   0  0  0  0  0  0  0  0  0  0  0  0
    3.4003   -2.1862   -0.5209 O   0  0  0  0  0  0  0  0  0  0  0  0
    1.3646   -0.9409    1.0287 C   0  0  0  0  0  0  0  0  0  0  0  0
    0.0480   -0.6623    1.1381 O   0  0  0  0  0  0  0  0  0  0  0  0
   -0.2789   -0.7754   -0.3419 C   0  0  1  0  0  0  0  0  0  0  0  0
   -1.7866   -0.4687   -0.2645 C   0  0  0  0  0  0  0  0  0  0  0  0
   -2.3030   -0.3183    0.9749 C   0  0  0  0  0  0  0  0  0  0  0  0
   -3.6986   -0.2389    1.1896 C   0  0  0  0  0  0  0  0  0  0  0  0
   -4.5266   -0.3248    0.0538 C   0  0  0  0  0  0  0  0  0  0  0  0
   -3.9623   -0.4678   -1.1584 C   0  0  0  0  0  0  0  0  0  0  0  0
   -2.6017   -0.5466   -1.3895 C   0  0  0  0  0  0  0  0  0  0  0  0
   -2.0256   -0.6939   -2.6290 O   0  0  0  0  0  0  0  0  0  0  0  0
    0.2195    0.7546   -0.8552 C   0  0  2  0  0  0  0  0  0  0  0  0
    1.8350    0.2924   -1.1842 C   0  0  2  0  0  0  0  0  0  0  0  0
    1.5283   -1.1468   -1.8434 C   0  0  0  0  0  0  0  0  0  0  0  0
  1  2  1  0
  2  3  2  0
  3  4  1  0
  4  5  1  6
  4  6  1  0
  6  7  1  6
  7  8  1  0
  6  9  1  0
  9 10  1  0
 10 11  1  0
 11 12  1  1
 12 13  2  0
 13 14  1  0
 14 15  2  0
 15 16  1  0
 16 17  2  0
 17 18  1  0
 11 19  1  0
 19 20  1  0
 20 21  1  6
 19  2  1  1
 20  6  1  0
 17 12  1  0
M  END
>  <zinc_id>  (1) 
ZINC000000519490

>  <smiles>  (1) 
CC1=C[C@H](C)[C@@]2(CO)CO[C@@H](c3ccccc3O)[C@@H]1[C@@H]2C

$$$$
