
     RDKit          3D

 20 21  0  0  0  0  0  0  0  0999 V2000
    3.8809    2.2664   -0.3017 C   0  0  0  0  0  0  0  0  0  0  0  0
    3.9676    0.7557    0.3940 C   0  0  1  0  0  0  0  0  0  0  0  0
    2.4658    0.6539    0.9993 C   0  0  0  0  0  0  0  0  0  0  0  0
    1.5079    1.2403   -0.2565 C   0  0  2  0  0  0  0  0  0  0  0  0
    0.2496    1.1470    0.6542 O   0  0  0  0  0  0  0  0  0  0  0  0
   -0.9063    1.5396    0.0781 C   0  0  0  0  0  0  0  0  0  0  0  0
   -1.0139    1.9545   -1.0935 O   0  0  0  0  0  0  0  0  0  0  0  0
   -2.2756    1.4879    0.9226 C   0  0  2  0  0  0  0  0  0  0  0  0
   -1.6547    0.9432    2.2190 O   0  0  0  0  0  0  0  0  0  0  0  0
   -2.7495    0.0433    0.3805 C   0  0  0  0  0  0  0  0  0  0  0  0
   -2.5435   -0.2488   -0.9053 C   0  0  0  0  0  0  0  0  0  0  0  0
   -2.9563   -1.4871   -1.3965 C   0  0  0  0  0  0  0  0  0  0  0  0
   -3.5670   -2.3750   -0.5350 C   0  0  0  0  0  0  0  0  0  0  0  0
   -3.7609   -2.0333    0.7885 C   0  0  0  0  0  0  0  0  0  0  0  0
   -3.3447   -0.8007    1.2571 C   0  0  0  0  0  0  0  0  0  0  0  0
    1.2094   -0.3135   -0.8890 C   0  0  0  0  0  0  0  0  0  0  0  0
    2.5487   -0.9799   -0.8251 C   0  0  0  0  0  0  0  0  0  0  0  0
    2.6997   -1.8573    0.4114 C   0  0  0  0  0  0  0  0  0  0  0  0
    2.5648   -1.9065   -1.9974 C   0  0  0  0  0  0  0  0  0  0  0  0
    3.6781   -0.0297   -1.0036 C   0  0  0  0  0  0  0  0  0  0  0  0
  2  1  1  6
  2  3  1  0
  3  4  1  0
  4  5  1  1
  5  6  1  0
  6  7  2  0
  6  8  1  0
  8  9  1  1
  8 10  1  0
 10 11  2  0
 11 12  1  0
 12 13  2  0
 13 14  1  0
 14 15  2  0
  4 16  1  0
 16 17  1  0
 17 18  1  0
 17 19  1  0
 17 20  1  0
 20  2  1  0
 15 10  1  0
M  END
>  <zinc_id>  (1) 
ZINC000000968262

>  <smiles>  (1) 
C[C@H]1C[C@H](OC(=O)[C@H](O)c2ccccc2)CC(C)(C)C1

$$$$
