
     RDKit          3D

 21 24  0  0  0  0  0  0  0  0999 V2000
    6.3100    0.4412   -0.1776 O   0  0  0  0  0  0  0  0  0  0  0  0
    5.0517   -0.1134   -0.2737 N   0  0  0  0  0  0  0  0  0  0  0  0
    4.0007    0.5942   -0.0217 C   0  0  0  0  0  0  0  0  0  0  0  0
    4.1044    2.0176    0.3771 C   0  0  0  0  0  0  0  0  0  0  0  0
    2.8494    2.7616    0.0068 C   0  0  0  0  0  0  0  0  0  0  0  0
    1.6489    2.1505    0.7375 C   0  0  0  0  0  0  0  0  0  0  0  0
    1.5303    0.7583    0.2409 C   0  0  0  0  0  0  0  0  0  0  0  0
    2.6410    0.0247   -0.1171 C   0  0  0  0  0  0  0  0  0  0  0  0
    2.2023   -1.1704   -0.5157 N   0  0  0  0  0  0  0  0  0  0  0  0
    0.8622   -1.2206   -0.4238 C   0  0  0  0  0  0  0  0  0  0  0  0
   -0.0294   -2.2247   -0.7158 C   0  0  0  0  0  0  0  0  0  0  0  0
   -1.3685   -1.9982   -0.5234 C   0  0  0  0  0  0  0  0  0  0  0  0
   -1.8418   -0.8034   -0.0500 C   0  0  0  0  0  0  0  0  0  0  0  0
   -3.3142   -0.6654    0.1212 C   0  0  0  0  0  0  0  0  0  0  0  0
   -3.6801    0.7171    0.5593 C   0  0  0  0  0  0  0  0  0  0  0  0
   -5.1417    0.7315    0.9806 C   0  0  0  0  0  0  0  0  0  0  0  0
   -5.8157   -0.5355    0.4431 C   0  0  0  0  0  0  0  0  0  0  0  0
   -5.4569   -0.6884   -1.0330 C   0  0  0  0  0  0  0  0  0  0  0  0
   -3.9715   -0.9785   -1.2004 C   0  0  0  0  0  0  0  0  0  0  0  0
   -0.9620    0.2036    0.2440 C   0  0  0  0  0  0  0  0  0  0  0  0
    0.3808   -0.0018    0.0589 C   0  0  0  0  0  0  0  0  0  0  0  0
  1  2  1  0
  2  3  2  0
  3  4  1  0
  4  5  1  0
  5  6  1  0
  6  7  1  0
  7  8  2  0
  8  9  1  0
  9 10  1  0
 10 11  2  0
 11 12  1  0
 12 13  2  0
 13 14  1  0
 14 15  1  0
 15 16  1  0
 16 17  1  0
 17 18  1  0
 18 19  1  0
 13 20  1  0
 20 21  2  0
  8  3  1  0
 21 10  1  0
 21  7  1  0
 19 14  1  0
M  END
>  <zinc_id>  (1) 
ZINC000000186475

>  <smiles>  (1) 
O/N=C1\CCCc2c1[nH]c1ccc(C3CCCCC3)cc21

$$$$
