
     RDKit          3D

 21 24  0  0  0  0  0  0  0  0999 V2000
   -5.9715   -0.9669   -0.6550 C   0  0  0  0  0  0  0  0  0  0  0  0
   -4.9168   -0.0903   -1.1225 N   0  0  0  0  0  0  0  0  0  0  0  0
   -3.5790   -0.2762   -0.6433 C   0  0  0  0  0  0  0  0  0  0  0  0
   -3.2900   -1.2806    0.2570 C   0  0  0  0  0  0  0  0  0  0  0  0
   -2.0057   -1.4892    0.7420 C   0  0  0  0  0  0  0  0  0  0  0  0
   -0.9727   -0.6868    0.3306 C   0  0  0  0  0  0  0  0  0  0  0  0
   -1.2505    0.3227   -0.5711 C   0  0  0  0  0  0  0  0  0  0  0  0
   -2.5358    0.5260   -1.0520 C   0  0  0  0  0  0  0  0  0  0  0  0
   -0.1153    1.1589   -0.9856 C   0  0  0  0  0  0  0  0  0  0  0  0
   -0.2928    2.0850   -1.7939 O   0  0  0  0  0  0  0  0  0  0  0  0
    1.2322    0.9465   -0.4820 C   0  0  0  0  0  0  0  0  0  0  0  0
    2.4885    1.4894   -0.6246 C   0  0  0  0  0  0  0  0  0  0  0  0
    2.7920    2.6401   -1.5014 C   0  0  0  0  0  0  0  0  0  0  0  0
    3.3611    0.8030    0.1549 N   0  0  0  0  0  0  0  0  0  0  0  0
    4.7802    1.0775    0.2736 C   0  0  0  0  0  0  0  0  0  0  0  0
    2.7074   -0.1853    0.8123 C   0  0  0  0  0  0  0  0  0  0  0  0
    3.0458   -1.1754    1.7127 C   0  0  0  0  0  0  0  0  0  0  0  0
    2.0276   -2.0159    2.1592 C   0  0  0  0  0  0  0  0  0  0  0  0
    0.7081   -1.8965    1.7393 C   0  0  0  0  0  0  0  0  0  0  0  0
    0.3874   -0.9004    0.8382 C   0  0  0  0  0  0  0  0  0  0  0  0
    1.3999   -0.0856    0.4115 C   0  0  0  0  0  0  0  0  0  0  0  0
  1  2  1  0
  2  3  1  0
  3  4  2  0
  4  5  1  0
  5  6  2  0
  6  7  1  0
  7  8  2  0
  7  9  1  0
  9 10  2  0
  9 11  1  0
 11 12  2  0
 12 13  1  0
 12 14  1  0
 14 15  1  0
 14 16  1  0
 16 17  1  0
 17 18  2  0
 18 19  1  0
 19 20  2  0
 20 21  1  0
  8  3  1  0
 21 11  1  0
 20  6  1  0
 21 16  2  0
M  END
>  <zinc_id>  (1) 
ZINC000001575059

>  <smiles>  (1) 
CNc1ccc2c(c1)C(=O)c1c(C)n(C)c3cccc-2c13

$$$$
