
     RDKit          3D

 20 21  0  0  0  0  0  0  0  0999 V2000
   -4.6078    0.4291    1.0910 C   0  0  0  0  0  0  0  0  0  0  0  0
   -4.2209    0.9639   -0.2089 N   0  0  0  0  0  4  0  0  0  0  0  0
   -3.6959    2.2857   -0.0309 C   0  0  0  0  0  0  0  0  0  0  0  0
   -5.3736    1.0026   -1.1181 C   0  0  0  0  0  0  0  0  0  0  0  0
   -3.2368    0.0609   -0.7393 C   0  0  0  0  0  0  0  0  0  0  0  0
   -3.5749   -1.0260   -1.4982 C   0  0  0  0  0  0  0  0  0  0  0  0
   -2.6006   -1.8476   -1.9746 C   0  0  0  0  0  0  0  0  0  0  0  0
   -1.2827   -1.5905   -1.6971 C   0  0  0  0  0  0  0  0  0  0  0  0
   -0.9309   -0.5037   -0.9371 C   0  0  0  0  0  0  0  0  0  0  0  0
    0.4113   -0.2898   -0.6868 O   0  0  0  0  0  0  0  0  0  0  0  0
    1.0656   -0.8238    0.4149 C   0  0  0  0  0  0  0  0  0  0  0  0
    0.3584   -1.5294    1.1930 O   0  0  0  0  0  0  0  0  0  0  0  0
    2.4848   -0.5917    0.6704 C   0  0  0  0  0  0  0  0  0  0  0  0
    3.1953    0.1786   -0.2057 C   0  0  0  0  0  0  0  0  0  0  0  0
    4.5479    0.4194    0.0078 C   0  0  0  0  0  0  0  0  0  0  0  0
    5.2039   -0.1081    1.1002 C   0  0  0  0  0  0  0  0  0  0  0  0
    6.5978    0.1287    1.3375 N   0  0  0  0  0  0  0  0  0  0  0  0
    4.4674   -0.8802    1.9678 C   0  0  0  0  0  0  0  0  0  0  0  0
    3.1068   -1.1362    1.7743 C   0  0  0  0  0  0  0  0  0  0  0  0
   -1.9150    0.3199   -0.4602 C   0  0  0  0  0  0  0  0  0  0  0  0
  1  2  1  0
  2  3  1  0
  2  4  1  0
  2  5  1  0
  5  6  2  0
  6  7  1  0
  7  8  2  0
  8  9  1  0
  9 10  1  0
 10 11  1  0
 11 12  2  0
 11 13  1  0
 13 14  2  0
 14 15  1  0
 15 16  2  0
 16 17  1  0
 16 18  1  0
 18 19  2  0
  9 20  2  0
 20  5  1  0
 19 13  1  0
M  CHG  1   2   1
M  END
>  <zinc_id>  (1) 
ZINC000001998241

>  <smiles>  (1) 
C[N+](C)(C)c1cccc(OC(=O)c2ccc(N)cc2)c1

$$$$
