
     RDKit          3D

 20 21  0  0  0  0  0  0  0  0999 V2000
    4.6878    2.9619    0.7493 C   0  0  0  0  0  0  0  0  0  0  0  0
    3.5679    2.5608   -0.0148 O   0  0  0  0  0  0  0  0  0  0  0  0
    3.1492    1.2463    0.0597 C   0  0  0  0  0  0  0  0  0  0  0  0
    2.0589    0.8383   -0.6759 C   0  0  0  0  0  0  0  0  0  0  0  0
    1.5938   -0.4565   -0.6455 C   0  0  0  0  0  0  0  0  0  0  0  0
    0.5015   -0.8567   -1.3875 O   0  0  0  0  0  0  0  0  0  0  0  0
   -0.8106   -0.7386   -0.9845 C   0  0  0  0  0  0  0  0  0  0  0  0
   -1.5593   -1.9183   -0.8586 C   0  0  0  0  0  0  0  0  0  0  0  0
   -2.8735   -1.8469   -0.4593 C   0  0  0  0  0  0  0  0  0  0  0  0
   -3.4927   -0.6377   -0.1735 C   0  0  0  0  0  0  0  0  0  0  0  0
   -4.9207   -0.5659    0.2601 C   0  0  0  0  0  0  0  0  0  0  0  0
   -5.6585    0.2069   -0.8188 C   0  0  0  0  0  0  0  0  0  0  0  0
   -4.9514    0.2994    1.5142 C   0  0  0  0  0  0  0  0  0  0  0  0
   -2.7100    0.4859   -0.3145 C   0  0  0  0  0  0  0  0  0  0  0  0
   -1.3866    0.4754   -0.7114 C   0  0  0  0  0  0  0  0  0  0  0  0
   -0.6125    1.7598   -0.8438 C   0  0  0  0  0  0  0  0  0  0  0  0
    2.2760   -1.3049    0.1542 N   0  0  0  0  0  0  0  0  0  0  0  0
    3.3419   -0.9534    0.8883 C   0  0  0  0  0  0  0  0  0  0  0  0
    4.0287   -1.8950    1.7215 N   0  0  0  0  0  0  0  0  0  0  0  0
    3.7703    0.3392    0.8293 N   0  0  0  0  0  0  0  0  0  0  0  0
  1  2  1  0
  2  3  1  0
  3  4  2  0
  4  5  1  0
  5  6  1  0
  6  7  1  0
  7  8  2  0
  8  9  1  0
  9 10  2  0
 10 11  1  0
 11 12  1  0
 11 13  1  0
 10 14  1  0
 14 15  2  0
 15 16  1  0
  5 17  2  0
 17 18  1  0
 18 19  1  0
 18 20  2  0
 20  3  1  0
 15  7  1  0
M  END
>  <zinc_id>  (1) 
ZINC000000227333

>  <smiles>  (1) 
COc1cc(Oc2ccc(C(C)C)cc2C)nc(N)n1

$$$$
