
     RDKit          3D

 20 23  0  0  0  0  0  0  0  0999 V2000
    1.3189    0.3347    1.6387 O   0  0  0  0  0  0  0  0  0  0  0  0
    1.6739   -0.2908    0.6077 C   0  0  0  0  0  0  0  0  0  0  0  0
    0.7705   -1.1941    0.0290 N   0  0  0  0  0  0  0  0  0  0  0  0
   -0.5106   -1.4490    0.5255 N   0  0  0  0  0  0  0  0  0  0  0  0
   -1.5328   -0.7466    0.2516 C   0  0  0  0  0  0  0  0  0  0  0  0
   -2.8405   -1.1266    0.8470 C   0  0  0  0  0  0  0  0  0  0  0  0
   -3.8067   -1.2863   -0.3359 C   0  0  0  0  0  0  0  0  0  0  0  0
   -3.7864   -0.0935   -1.2362 C   0  0  0  0  0  0  0  0  0  0  0  0
   -4.2484    1.1174   -0.4720 C   0  0  0  0  0  0  0  0  0  0  0  0
   -3.3096    1.2987    0.7253 C   0  0  0  0  0  0  0  0  0  0  0  0
   -3.3325    0.0856    1.6211 C   0  0  0  0  0  0  0  0  0  0  0  0
   -1.9448    1.6271    0.2017 C   0  0  0  0  0  0  0  0  0  0  0  0
   -1.4850    0.4267   -0.6281 C   0  0  0  0  0  0  0  0  0  0  0  0
   -2.4179    0.2113   -1.7999 C   0  0  0  0  0  0  0  0  0  0  0  0
    3.0084   -0.0297    0.0850 C   0  0  0  0  0  0  0  0  0  0  0  0
    3.8535    0.8611    0.6860 C   0  0  0  0  0  0  0  0  0  0  0  0
    5.0976    1.0756    0.1614 C   0  0  0  0  0  0  0  0  0  0  0  0
    5.4724    0.3844   -0.9675 C   0  0  0  0  0  0  0  0  0  0  0  0
    4.6189   -0.4980   -1.5523 N   0  0  0  0  0  0  0  0  0  0  0  0
    3.4011   -0.7081   -1.0390 C   0  0  0  0  0  0  0  0  0  0  0  0
  1  2  2  0
  2  3  1  0
  3  4  1  0
  4  5  2  3
  5  6  1  0
  6  7  1  0
  7  8  1  0
  8  9  1  0
  9 10  1  0
 10 11  1  0
 10 12  1  0
 12 13  1  0
 13 14  1  0
  2 15  1  0
 15 16  2  0
 16 17  1  0
 17 18  2  0
 18 19  1  0
 19 20  2  0
 13  5  1  0
 20 15  1  0
 11  6  1  0
 14  8  1  0
M  END
>  <zinc_id>  (1) 
ZINC000000290540

>  <smiles>  (1) 
O=C(NN=C1C2CC3CC(C2)CC1C3)c1cccnc1

$$$$
