
     RDKit          3D

 19 20  0  0  0  0  0  0  0  0999 V2000
    5.7924    0.1501    1.3112 C   0  0  0  0  0  0  0  0  0  0  0  0
    5.1747    0.3767   -0.1999 C   0  0  1  0  0  0  0  0  0  0  0  0
    5.6478   -0.9804   -0.6767 O   0  0  0  0  0  0  0  0  0  0  0  0
    3.7066   -0.0608    0.1215 C   0  0  0  0  0  0  0  0  0  0  0  0
    3.0637    0.2661    1.2611 C   0  0  0  0  0  0  0  0  0  0  0  0
    1.7518   -0.1490    1.4895 C   0  0  0  0  0  0  0  0  0  0  0  0
    1.0559   -0.9003    0.5813 C   0  0  0  0  0  0  0  0  0  0  0  0
   -0.2597   -1.3016    0.8393 O   0  0  0  0  0  0  0  0  0  0  0  0
   -1.3625   -0.5595    0.4841 C   0  0  0  0  0  0  0  0  0  0  0  0
   -1.8812    0.3646    1.3451 C   0  0  0  0  0  0  0  0  0  0  0  0
   -3.0025    1.0709    0.8978 C   0  0  0  0  0  0  0  0  0  0  0  0
   -3.5501    0.8543   -0.3248 C   0  0  0  0  0  0  0  0  0  0  0  0
   -4.7908    1.7249   -0.6715 C   0  0  1  0  0  0  0  0  0  0  0  0
   -5.6457    0.5359   -1.4701 C   0  0  0  0  0  0  0  0  0  0  0  0
   -5.5434    1.4950    0.6180 O   0  0  0  0  0  0  0  0  0  0  0  0
   -3.0122   -0.0654   -1.1484 C   0  0  0  0  0  0  0  0  0  0  0  0
   -1.9080   -0.7820   -0.7454 C   0  0  0  0  0  0  0  0  0  0  0  0
    1.7176   -1.2277   -0.5741 C   0  0  0  0  0  0  0  0  0  0  0  0
    3.0455   -0.8115   -0.8128 C   0  0  0  0  0  0  0  0  0  0  0  0
  2  1  1  1
  2  3  1  0
  2  4  1  0
  4  5  2  0
  5  6  1  0
  6  7  2  0
  7  8  1  0
  8  9  1  0
  9 10  2  0
 10 11  1  0
 11 12  2  0
 12 13  1  0
 13 14  1  6
 13 15  1  0
 12 16  1  0
 16 17  2  0
  7 18  1  0
 18 19  2  0
 19  4  1  0
 17  9  1  0
M  END
>  <zinc_id>  (1) 
ZINC000000262378

>  <smiles>  (1) 
C[C@@H](O)c1ccc(Oc2ccc([C@@H](C)O)cc2)cc1

$$$$
