
     RDKit          3D

 19 20  0  0  0  0  0  0  0  0999 V2000
    5.8340    0.9212   -0.3999 C   0  0  0  0  0  0  0  0  0  0  0  0
    4.9128    0.9763    0.7446 N   0  0  0  0  0  0  0  0  0  0  0  0
    3.5712    0.4865    0.5348 C   0  0  0  0  0  0  0  0  0  0  0  0
    2.4195    0.3555    1.8901 S   0  0  0  0  0  0  0  0  0  0  0  0
    3.1734    0.1320   -0.6383 N   0  0  0  0  0  0  0  0  0  0  0  0
    1.8437   -0.3642   -0.9085 C   0  0  0  0  0  0  0  0  0  0  0  0
    1.2465   -0.8772    0.3782 C   0  0  0  0  0  0  0  0  0  0  0  0
   -0.1244   -1.4088    0.1791 C   0  0  0  0  0  0  0  0  0  0  0  0
   -0.2731   -2.7731    0.1560 C   0  0  0  0  0  0  0  0  0  0  0  0
   -1.5158   -3.3288   -0.0281 C   0  0  0  0  0  0  0  0  0  0  0  0
   -2.6216   -2.5078   -0.1910 C   0  0  0  0  0  0  0  0  0  0  0  0
   -2.4948   -1.1359   -0.1710 C   0  0  0  0  0  0  0  0  0  0  0  0
   -3.5481   -0.2630   -0.3257 C   0  0  0  0  0  0  0  0  0  0  0  0
   -3.3704    1.1049   -0.2979 C   0  0  0  0  0  0  0  0  0  0  0  0
   -2.1079    1.6107   -0.1105 C   0  0  0  0  0  0  0  0  0  0  0  0
   -1.8381    2.9654   -0.0691 O   0  0  0  0  0  0  0  0  0  0  0  0
   -2.8225    3.9674   -0.2142 C   0  0  0  0  0  0  0  0  0  0  0  0
   -1.0460    0.7492    0.0453 C   0  0  0  0  0  0  0  0  0  0  0  0
   -1.2382   -0.6104    0.0153 C   0  0  0  0  0  0  0  0  0  0  0  0
  1  2  1  0
  2  3  1  0
  3  4  1  0
  3  5  2  0
  5  6  1  0
  6  7  1  0
  7  8  1  0
  8  9  2  0
  9 10  1  0
 10 11  2  0
 11 12  1  0
 12 13  2  0
 13 14  1  0
 14 15  2  0
 15 16  1  0
 16 17  1  0
 15 18  1  0
 18 19  2  0
 19  8  1  0
 19 12  1  0
M  END
>  <zinc_id>  (1) 
ZINC000000008269

>  <smiles>  (1) 
CN/C(S)=N/CCc1cccc2ccc(OC)cc12

$$$$
