
     RDKit          3D

 18 19  0  0  0  0  0  0  0  0999 V2000
    5.3207    1.2975   -1.7124 C   0  0  0  0  0  0  0  0  0  0  0  0
    4.9595    1.1763   -0.2493 C   0  0  0  0  0  0  0  0  0  0  0  0
    5.9770    0.2529    0.4269 C   0  0  0  0  0  0  0  0  0  0  0  0
    3.6298    0.5433   -0.0709 C   0  0  0  0  0  0  0  0  0  0  0  0
    2.4497    1.2460    0.0754 C   0  0  0  0  0  0  0  0  0  0  0  0
    1.2403    0.6213    0.2363 C   0  0  0  0  0  0  0  0  0  0  0  0
    1.1355   -0.7491    0.2608 C   0  0  0  0  0  0  0  0  0  0  0  0
   -0.1238   -1.4192    0.4246 N   0  0  0  0  0  0  0  0  0  0  0  0
   -1.2524   -0.5806    0.5401 N   0  0  0  0  0  0  0  0  0  0  0  0
   -2.5463   -1.0346    0.1652 C   0  0  0  0  0  0  0  0  0  0  0  0
   -2.6398   -2.1989   -0.2689 O   0  0  0  0  0  0  0  0  0  0  0  0
   -3.7435   -0.1638    0.2819 C   0  0  0  0  0  0  0  0  0  0  0  0
   -3.7992    1.1171    0.7404 C   0  0  0  0  0  0  0  0  0  0  0  0
   -4.9933    1.7155    0.7627 C   0  0  0  0  0  0  0  0  0  0  0  0
   -6.0656    0.9928    0.3224 C   0  0  0  0  0  0  0  0  0  0  0  0
   -5.3639   -0.4974   -0.1064 S   0  0  0  0  0  0  0  0  0  0  0  0
    2.3037   -1.4774    0.1165 C   0  0  0  0  0  0  0  0  0  0  0  0
    3.5114   -0.8416   -0.0442 C   0  0  0  0  0  0  0  0  0  0  0  0
  1  2  1  0
  2  3  1  0
  2  4  1  0
  4  5  2  0
  5  6  1  0
  6  7  2  0
  7  8  1  0
  8  9  1  0
  9 10  1  0
 10 11  2  0
 10 12  1  0
 12 13  2  0
 13 14  1  0
 14 15  2  0
 15 16  1  0
  7 17  1  0
 17 18  2  0
 18  4  1  0
 16 12  1  0
M  END
>  <zinc_id>  (1) 
ZINC000000147726

>  <smiles>  (1) 
CC(C)c1ccc(NNC(=O)c2cccs2)cc1

$$$$
