
     RDKit          3D

 21 23  0  0  0  0  0  0  0  0999 V2000
    5.3936    1.5531   -1.7022 C   0  0  0  0  0  0  0  0  0  0  0  0
    4.6963    0.4709   -0.9370 C   0  0  0  0  0  0  0  0  0  0  0  0
    3.7735    1.1292    0.0619 C   0  0  0  0  0  0  0  0  0  0  0  0
    3.0909    0.0578    0.8401 C   0  0  0  0  0  0  0  0  0  0  0  0
    2.3753   -0.9610    0.0307 C   0  0  0  0  0  0  0  0  0  0  0  0
    3.1196   -1.4646   -1.1633 C   0  0  0  0  0  0  0  0  0  0  0  0
    3.9430   -0.4509   -1.8634 C   0  0  0  0  0  0  0  0  0  0  0  0
    1.8734   -1.9833    0.8898 N   0  0  0  0  0  0  0  0  0  0  0  0
    0.6866   -1.4671    1.4847 C   0  0  0  0  0  0  0  0  0  0  0  0
    0.1413   -1.8397    2.5803 O   0  0  0  0  0  0  0  0  0  0  0  0
    0.1928   -0.4354    0.6308 N   0  0  0  0  0  0  0  0  0  0  0  0
   -1.0008    0.3670    0.8473 C   0  0  0  0  0  0  0  0  0  0  0  0
   -2.1223   -0.2917    0.2373 N   0  0  0  0  0  0  0  0  0  0  0  0
   -3.4249    0.3137    0.3180 C   0  0  0  0  0  0  0  0  0  0  0  0
   -4.5329   -0.2613   -0.2412 C   0  0  0  0  0  0  0  0  0  0  0  0
   -5.7847    0.3119   -0.1686 C   0  0  0  0  0  0  0  0  0  0  0  0
   -5.9192    1.5121    0.4949 C   0  0  0  0  0  0  0  0  0  0  0  0
   -4.8315    2.1264    1.0725 C   0  0  0  0  0  0  0  0  0  0  0  0
   -3.6026    1.5194    0.9758 C   0  0  0  0  0  0  0  0  0  0  0  0
    1.0943   -0.3468   -0.4693 C   0  0  0  0  0  0  0  0  0  0  0  0
    0.8383    0.1403   -1.5845 O   0  0  0  0  0  0  0  0  0  0  0  0
  1  2  1  0
  2  3  1  0
  3  4  1  0
  4  5  1  0
  5  6  1  0
  6  7  1  0
  5  8  1  0
  8  9  1  0
  9 10  2  0
  9 11  1  0
 11 12  1  0
 12 13  1  0
 13 14  1  0
 14 15  2  0
 15 16  1  0
 16 17  2  0
 17 18  1  0
 18 19  2  0
 11 20  1  0
 20 21  2  0
  7  2  1  0
 19 14  1  0
 20  5  1  0
M  END
>  <zinc_id>  (1) 
ZINC000001754793

>  <smiles>  (1) 
CC1CCC2(CC1)NC(=O)N(CNc1ccccc1)C2=O

$$$$
