
     RDKit          3D

 23 25  0  0  0  0  0  0  0  0999 V2000
    5.3672   -1.7940   -0.0812 C   0  0  0  0  0  0  0  0  0  0  0  0
    4.7500   -0.6433    0.4602 O   0  0  0  0  0  0  0  0  0  0  0  0
    3.4543   -0.3711    0.0538 C   0  0  0  0  0  0  0  0  0  0  0  0
    2.8636    0.7687    0.6002 C   0  0  0  0  0  0  0  0  0  0  0  0
    1.5406    1.0817    0.2104 C   0  0  0  0  0  0  0  0  0  0  0  0
    0.8671    0.3027   -0.6635 C   0  0  0  0  0  0  0  0  0  0  0  0
   -0.5888    0.6767   -1.0665 C   0  0  2  0  0  0  0  0  0  0  0  0
   -0.5660    2.2437   -0.6359 C   0  0  0  0  0  0  0  0  0  0  0  0
    0.4798    2.8246   -1.4384 N   0  0  0  0  0  4  0  0  0  0  0  0
    1.1682    2.2126   -2.2700 O   0  0  0  0  0  0  0  0  0  0  0  0
    0.7259    4.1584   -1.2659 O   0  0  0  0  0  1  0  0  0  0  0  0
   -1.3952    0.1528    0.2053 C   0  0  0  0  0  0  0  0  0  0  0  0
   -1.4175    0.6275    1.4450 C   0  0  0  0  0  0  0  0  0  0  0  0
   -0.6503    1.8220    1.9204 C   0  0  0  0  0  0  0  0  0  0  0  0
   -2.2434   -0.1534    2.1666 N   0  0  0  0  0  0  0  0  0  0  0  0
   -2.7548   -1.1306    1.3973 C   0  0  0  0  0  0  0  0  0  0  0  0
   -3.6319   -2.1699    1.6471 C   0  0  0  0  0  0  0  0  0  0  0  0
   -3.9928   -3.0424    0.6543 C   0  0  0  0  0  0  0  0  0  0  0  0
   -3.4454   -2.8465   -0.6157 C   0  0  0  0  0  0  0  0  0  0  0  0
   -2.5775   -1.8175   -0.8611 C   0  0  0  0  0  0  0  0  0  0  0  0
   -2.2187   -0.9473    0.1321 C   0  0  0  0  0  0  0  0  0  0  0  0
    1.4841   -0.8021   -1.1723 C   0  0  0  0  0  0  0  0  0  0  0  0
    2.7815   -1.1535   -0.8222 C   0  0  0  0  0  0  0  0  0  0  0  0
  1  2  1  0
  2  3  1  0
  3  4  2  0
  4  5  1  0
  5  6  2  0
  6  7  1  0
  7  8  1  1
  8  9  1  0
  9 10  2  0
  9 11  1  0
  7 12  1  0
 12 13  2  0
 13 14  1  0
 13 15  1  0
 15 16  1  0
 16 17  2  0
 17 18  1  0
 18 19  2  0
 19 20  1  0
 20 21  2  0
  6 22  1  0
 22 23  2  0
 23  3  1  0
 21 12  1  0
 21 16  1  0
M  CHG  2   9   1  11  -1
M  END
>  <zinc_id>  (1) 
ZINC000003165963

>  <smiles>  (1) 
COc1ccc([C@H](C[N+](=O)[O-])c2c(C)[nH]c3ccccc23)cc1

$$$$
