
     RDKit          3D

 22 25  0  0  0  0  0  0  0  0999 V2000
   -3.9608   -0.2787    0.0459 O   0  0  0  0  0  0  0  0  0  0  0  0
   -3.1085   -1.3243    0.3793 C   0  0  0  0  0  0  0  0  0  0  0  0
   -3.7183   -2.5429    0.6694 C   0  0  0  0  0  0  0  0  0  0  0  0
   -2.9265   -3.6177    1.0070 C   0  0  0  0  0  0  0  0  0  0  0  0
   -1.5577   -3.5129    1.0629 C   0  0  0  0  0  0  0  0  0  0  0  0
   -0.9912   -2.2894    0.7688 C   0  0  0  0  0  0  0  0  0  0  0  0
   -1.7386   -1.1841    0.4258 C   0  0  0  0  0  0  0  0  0  0  0  0
   -1.1225    0.1069    0.1167 C   0  0  0  0  0  0  0  0  0  0  0  0
   -1.7302    1.2541   -0.2290 N   0  0  0  0  0  0  0  0  0  0  0  0
   -0.7950    2.2314   -0.4342 C   0  0  0  0  0  0  0  0  0  0  0  0
   -0.8993    3.5583   -0.7970 C   0  0  0  0  0  0  0  0  0  0  0  0
    0.2130    4.3565   -0.9430 C   0  0  0  0  0  0  0  0  0  0  0  0
    1.4410    3.7771   -0.7118 C   0  0  0  0  0  0  0  0  0  0  0  0
    1.5356    2.4496   -0.3494 C   0  0  0  0  0  0  0  0  0  0  0  0
    0.4223    1.7024   -0.2172 N   0  0  0  0  0  0  0  0  0  0  0  0
    0.2264    0.3942    0.1223 C   0  0  0  0  0  0  0  0  0  0  0  0
    1.2211   -0.5402    0.4354 N   0  0  0  0  0  0  0  0  0  0  0  0
    2.6353   -0.3057    0.4569 C   0  0  0  0  0  0  0  0  0  0  0  0
    3.1602    0.1282   -0.8942 C   0  0  0  0  0  0  0  0  0  0  0  0
    3.8614   -1.0670   -1.4888 C   0  0  0  0  0  0  0  0  0  0  0  0
    4.4416   -1.7420   -0.2553 C   0  0  0  0  0  0  0  0  0  0  0  0
    3.3906   -1.5541    0.8294 C   0  0  0  0  0  0  0  0  0  0  0  0
  1  2  1  0
  2  3  2  0
  3  4  1  0
  4  5  2  0
  5  6  1  0
  6  7  2  0
  7  8  1  0
  8  9  1  0
  9 10  2  0
 10 11  1  0
 11 12  2  0
 12 13  1  0
 13 14  2  0
 14 15  1  0
 15 16  1  0
 16 17  1  0
 17 18  1  0
 18 19  1  0
 19 20  1  0
 20 21  1  0
 21 22  1  0
  7  2  1  0
 16  8  2  0
 22 18  1  0
 15 10  1  0
M  END
>  <zinc_id>  (1) 
ZINC000000417878

>  <smiles>  (1) 
Oc1ccccc1-c1nc2ccccn2c1NC1CCCC1

$$$$
