
     RDKit          3D

 20 21  0  0  0  0  0  0  0  0999 V2000
    6.6154    0.2026    0.2979 C   0  0  0  0  0  0  0  0  0  0  0  0
    5.1399    0.0380    0.4807 C   0  0  0  0  0  0  0  0  0  0  0  0
    4.4199    0.3570   -0.8051 C   0  0  0  0  0  0  0  0  0  0  0  0
    4.7726    1.8128   -1.1392 C   0  0  0  0  0  0  0  0  0  0  0  0
    4.9723   -0.4916   -1.9220 C   0  0  0  0  0  0  0  0  0  0  0  0
    2.9580    0.1744   -0.6450 C   0  0  0  0  0  0  0  0  0  0  0  0
    2.2972    0.8128    0.4102 C   0  0  0  0  0  0  0  0  0  0  0  0
    0.9230    0.6374    0.5565 C   0  0  0  0  0  0  0  0  0  0  0  0
    0.1727   -0.1246   -0.2748 C   0  0  0  0  0  0  0  0  0  0  0  0
   -1.1973   -0.3211   -0.1585 O   0  0  0  0  0  0  0  0  0  0  0  0
   -1.9239    0.2904    0.8810 C   0  0  0  0  0  0  0  0  0  0  0  0
   -3.3439   -0.0622    0.7993 N   0  0  0  0  0  0  0  0  0  0  0  0
   -4.1770    0.6746    0.0975 N   0  0  0  0  0  0  0  0  0  0  0  0
   -5.3962    0.1625    0.1747 C   0  0  0  0  0  0  0  0  0  0  0  0
   -6.5552    0.6925   -0.4552 N   0  0  0  0  0  0  0  0  0  0  0  0
   -5.3208   -0.9587    0.9705 C   0  0  0  0  0  0  0  0  0  0  0  0
   -4.0098   -1.0694    1.3446 C   0  0  0  0  0  0  0  0  0  0  0  0
   -3.3833   -2.1157    2.2085 C   0  0  0  0  0  0  0  0  0  0  0  0
    0.8370   -0.7685   -1.3391 C   0  0  0  0  0  0  0  0  0  0  0  0
    2.1995   -0.5941   -1.4826 C   0  0  0  0  0  0  0  0  0  0  0  0
  1  2  1  0
  2  3  1  0
  3  4  1  0
  3  5  1  0
  3  6  1  0
  6  7  2  0
  7  8  1  0
  8  9  2  0
  9 10  1  0
 10 11  1  0
 11 12  1  0
 12 13  1  0
 13 14  2  0
 14 15  1  0
 14 16  1  0
 16 17  2  0
 17 18  1  0
  9 19  1  0
 19 20  2  0
 20  6  1  0
 17 12  1  0
M  END
>  <zinc_id>  (1) 
ZINC000002534941

>  <smiles>  (1) 
CCC(C)(C)c1ccc(OCn2nc(N)cc2C)cc1

$$$$
