
     RDKit          3D

 19 20  0  0  0  0  0  0  0  0999 V2000
   -3.8105    2.9618    0.8096 C   0  0  0  0  0  0  0  0  0  0  0  0
   -3.2924    1.9528   -0.4087 C   0  0  1  0  0  0  0  0  0  0  0  0
   -1.7948    1.7983    0.2464 C   0  0  0  0  0  0  0  0  0  0  0  0
   -1.4396    0.6340   -0.9109 C   0  0  1  0  0  0  0  0  0  0  0  0
    0.1151    0.7260   -0.7400 N   0  0  0  0  0  0  0  0  0  0  0  0
    0.8790   -0.3751   -0.4253 C   0  0  0  0  0  0  0  0  0  0  0  0
    0.2803   -1.4630   -0.2772 O   0  0  0  0  0  0  0  0  0  0  0  0
    2.3173   -0.2263   -0.2815 C   0  0  0  0  0  0  0  0  0  0  0  0
    2.9335    0.9865   -0.4596 C   0  0  0  0  0  0  0  0  0  0  0  0
    4.3206    1.1168   -0.3197 C   0  0  0  0  0  0  0  0  0  0  0  0
    5.1039    0.0372   -0.0003 C   0  0  0  0  0  0  0  0  0  0  0  0
    4.5092   -1.1853    0.1830 C   0  0  0  0  0  0  0  0  0  0  0  0
    3.1335   -1.2785    0.0360 C   0  0  0  0  0  0  0  0  0  0  0  0
    2.4722   -2.5456    0.2214 N   0  0  0  0  0  0  0  0  0  0  0  0
   -1.6528   -0.5573    0.2003 C   0  0  0  0  0  0  0  0  0  0  0  0
   -3.1187   -0.5012    0.4167 C   0  0  0  0  0  0  0  0  0  0  0  0
   -3.3604   -1.1297    1.8091 C   0  0  0  0  0  0  0  0  0  0  0  0
   -3.6801   -1.5852   -0.5362 C   0  0  0  0  0  0  0  0  0  0  0  0
   -3.9156    0.6339    0.3215 C   0  0  0  0  0  0  0  0  0  0  0  0
  2  1  1  1
  2  3  1  0
  3  4  1  0
  4  5  1  1
  5  6  1  0
  6  7  2  0
  6  8  1  0
  8  9  2  0
  9 10  1  0
 10 11  2  0
 11 12  1  0
 12 13  2  0
 13 14  1  0
  4 15  1  0
 15 16  1  0
 16 17  1  0
 16 18  1  0
 16 19  1  0
 19  2  1  0
 13  8  1  0
M  END
>  <zinc_id>  (1) 
ZINC000000144143

>  <smiles>  (1) 
C[C@H]1C[C@@H](NC(=O)c2ccccc2N)CC(C)(C)C1

$$$$
