
     RDKit          3D

 20 22  0  0  0  0  0  0  0  0999 V2000
   -5.5510    0.9372    1.3687 C   0  0  0  0  0  0  0  0  0  0  0  0
   -4.2951    0.7051    0.5849 C   0  0  0  0  0  0  0  0  0  0  0  0
   -4.1825    1.1290   -0.7234 C   0  0  0  0  0  0  0  0  0  0  0  0
   -3.0304    0.9150   -1.4380 C   0  0  0  0  0  0  0  0  0  0  0  0
   -1.9439    0.2820   -0.9111 C   0  0  0  0  0  0  0  0  0  0  0  0
   -0.7091    0.0462   -1.6573 C   0  0  0  0  0  0  0  0  0  0  0  0
   -0.7864   -0.0061   -2.8988 O   0  0  0  0  0  0  0  0  0  0  0  0
    0.5690   -0.1224   -0.9831 C   0  0  0  0  0  0  0  0  0  0  0  0
    0.6494   -0.0649    0.3886 C   0  0  0  0  0  0  0  0  0  0  0  0
    1.8188   -0.2161    1.0784 C   0  0  0  0  0  0  0  0  0  0  0  0
    2.9812   -0.4386    0.3534 C   0  0  0  0  0  0  0  0  0  0  0  0
    2.9176   -0.4983   -1.0094 C   0  0  0  0  0  0  0  0  0  0  0  0
    1.7273   -0.3433   -1.6887 C   0  0  0  0  0  0  0  0  0  0  0  0
    1.6579   -0.4051   -3.1123 N   0  0  0  0  0  0  0  0  0  0  0  0
    4.1410   -0.5863    1.0837 O   0  0  0  0  0  0  0  0  0  0  0  0
    4.3212   -0.2599    2.4278 C   0  0  0  0  0  0  0  0  0  0  0  0
    3.0820    0.2240    3.1130 C   0  0  0  0  0  0  0  0  0  0  0  0
    1.9026   -0.1583    2.4675 O   0  0  0  0  0  0  0  0  0  0  0  0
   -2.0582   -0.1477    0.4151 C   0  0  0  0  0  0  0  0  0  0  0  0
   -3.2112    0.0627    1.1409 C   0  0  0  0  0  0  0  0  0  0  0  0
  1  2  1  0
  2  3  2  0
  3  4  1  0
  4  5  2  0
  5  6  1  0
  6  7  2  0
  6  8  1  0
  8  9  2  0
  9 10  1  0
 10 11  2  0
 11 12  1  0
 12 13  2  0
 13 14  1  0
 11 15  1  0
 15 16  1  0
 16 17  1  0
 17 18  1  0
  5 19  1  0
 19 20  2  0
 20  2  1  0
 13  8  1  0
 18 10  1  0
M  END
>  <zinc_id>  (1) 
ZINC000000111829

>  <smiles>  (1) 
Cc1ccc(C(=O)c2cc3c(cc2N)OCCO3)cc1

$$$$
