
     RDKit          3D

 20 23  0  0  0  0  0  0  0  0999 V2000
    1.4509    0.5906   -1.3825 O   0  0  0  0  0  0  0  0  0  0  0  0
    1.9789   -0.1173   -0.4906 C   0  0  0  0  0  0  0  0  0  0  0  0
    1.3128   -1.2296    0.0333 N   0  0  0  0  0  0  0  0  0  0  0  0
    0.0476   -1.6385   -0.3728 N   0  0  0  0  0  0  0  0  0  0  0  0
   -1.0226   -1.0181   -0.1039 C   0  0  0  0  0  0  0  0  0  0  0  0
   -2.2946   -1.6930   -0.6793 C   0  0  1  0  0  0  0  0  0  0  0  0
   -3.2249   -1.6433    0.6798 C   0  0  0  0  0  0  0  0  0  0  0  0
   -3.2115   -0.3940    1.3176 C   0  0  0  0  0  0  0  0  0  0  0  0
   -1.9955    0.0481    1.8522 C   0  0  0  0  0  0  0  0  0  0  0  0
   -0.8065    0.2642    0.7340 C   0  0  2  0  0  0  0  0  0  0  0  0
   -1.6233    1.2958   -0.2108 C   0  0  0  0  0  0  0  0  0  0  0  0
   -2.9129    0.7856   -0.6021 C   0  0  0  0  0  0  0  0  0  0  0  0
   -3.4727    1.7965   -1.4057 O   0  0  0  0  0  0  0  0  0  0  0  0
   -3.9370    0.6759    0.5439 C   0  0  0  0  0  0  0  0  0  0  0  0
   -2.9455   -0.4000   -1.4006 C   0  0  0  0  0  0  0  0  0  0  0  0
    3.3242    0.2455    0.0003 C   0  0  0  0  0  0  0  0  0  0  0  0
    4.0561   -0.3957    0.9570 C   0  0  0  0  0  0  0  0  0  0  0  0
    5.2536    0.0934    1.2573 C   0  0  0  0  0  0  0  0  0  0  0  0
    5.6713    1.2083    0.5855 C   0  0  0  0  0  0  0  0  0  0  0  0
    4.3519    1.5254   -0.4494 S   0  0  0  0  0  0  0  0  0  0  0  0
  1  2  2  0
  2  3  1  0
  3  4  1  0
  4  5  2  3
  5  6  1  0
  6  7  1  1
  7  8  1  0
  8  9  1  0
 10  9  1  1
 10 11  1  0
 11 12  1  0
 12 13  1  0
 12 14  1  0
 12 15  1  0
  2 16  1  0
 16 17  2  0
 17 18  1  0
 18 19  2  0
 19 20  1  0
 10  5  1  0
 20 16  1  0
 15  6  1  0
 14  8  1  0
M  END
>  <zinc_id>  (1) 
ZINC000001513590

>  <smiles>  (1) 
O=C(NN=C1[C@H]2CC3C[C@@H]1CC(O)(C3)C2)c1cccs1

$$$$
