
     RDKit          3D

 19 20  0  0  0  0  0  0  0  0999 V2000
   -5.7182    0.9986   -0.8073 C   0  0  0  0  0  0  0  0  0  0  0  0
   -4.2498    0.8566   -0.5739 C   0  0  0  0  0  0  0  0  0  0  0  0
   -3.4866    1.9073   -0.1068 C   0  0  0  0  0  0  0  0  0  0  0  0
   -2.1210    1.7563    0.1045 C   0  0  0  0  0  0  0  0  0  0  0  0
   -1.4035    2.8442    0.5744 O   0  0  0  0  0  0  0  0  0  0  0  0
   -1.4758    0.5603   -0.1416 C   0  0  0  0  0  0  0  0  0  0  0  0
   -0.0911    0.5025    0.1019 N   0  0  0  0  0  0  0  0  0  0  0  0
    0.7214   -0.6381   -0.0956 C   0  0  0  0  0  0  0  0  0  0  0  0
    0.1935   -1.6887   -0.5183 O   0  0  0  0  0  0  0  0  0  0  0  0
    2.1369   -0.5218    0.2073 C   0  0  0  0  0  0  0  0  0  0  0  0
    3.0159   -1.5940    0.0430 C   0  0  0  0  0  0  0  0  0  0  0  0
    4.3582   -1.4741    0.3331 C   0  0  0  0  0  0  0  0  0  0  0  0
    4.8963   -0.2935    0.7980 C   0  0  0  0  0  0  0  0  0  0  0  0
    6.7551   -0.1638    1.1886 Br  0  0  0  0  0  0  0  0  0  0  0  0
    4.0395    0.7786    0.9665 C   0  0  0  0  0  0  0  0  0  0  0  0
    2.6977    0.6483    0.6732 C   0  0  0  0  0  0  0  0  0  0  0  0
   -2.2319   -0.4941   -0.6085 C   0  0  0  0  0  0  0  0  0  0  0  0
   -3.5959   -0.3330   -0.8163 C   0  0  0  0  0  0  0  0  0  0  0  0
   -4.4406   -1.4601   -1.3223 C   0  0  0  0  0  0  0  0  0  0  0  0
  1  2  1  0
  2  3  2  0
  3  4  1  0
  4  5  1  0
  4  6  2  0
  6  7  1  0
  7  8  1  0
  8  9  2  0
  8 10  1  0
 10 11  2  0
 11 12  1  0
 12 13  2  0
 13 14  1  0
 13 15  1  0
 15 16  2  0
  6 17  1  0
 17 18  2  0
 18 19  1  0
 18  2  1  0
 16 10  1  0
M  END
>  <zinc_id>  (1) 
ZINC000000330819

>  <smiles>  (1) 
Cc1cc(O)c(NC(=O)c2ccc(Br)cc2)cc1C

$$$$
