
     RDKit          3D

 18 19  0  0  0  0  0  0  0  0999 V2000
   -0.5511   -0.2449   -1.0008 O   0  0  0  0  0  0  0  0  0  0  0  0
   -1.1321    0.2133    0.0145 C   0  0  0  0  0  0  0  0  0  0  0  0
   -0.2987    0.6776    1.0679 N   0  0  0  0  0  0  0  0  0  0  0  0
    1.1011    0.6337    0.9939 N   0  0  0  0  0  0  0  0  0  0  0  0
    1.6964   -0.3916    0.2393 C   0  0  0  0  0  0  0  0  0  0  0  0
    3.0070   -0.4776    0.1943 C   0  0  0  0  0  0  0  0  0  0  0  0
    3.8734    0.4809    0.9203 C   0  0  0  0  0  0  0  0  0  0  0  0
    5.2949    0.2648    0.4876 C   0  0  0  0  0  0  0  0  0  0  0  0
    5.3389    0.2471   -1.0206 C   0  0  0  0  0  0  0  0  0  0  0  0
    4.6064   -0.9343   -1.6057 C   0  0  0  0  0  0  0  0  0  0  0  0
    3.6642   -1.5448   -0.5906 C   0  0  0  0  0  0  0  0  0  0  0  0
   -2.5884    0.2589    0.0912 C   0  0  0  0  0  0  0  0  0  0  0  0
   -3.2452    0.7568    1.1938 C   0  0  0  0  0  0  0  0  0  0  0  0
   -4.6215    0.8043    1.2761 C   0  0  0  0  0  0  0  0  0  0  0  0
   -5.3657    0.3355    0.2141 C   0  0  0  0  0  0  0  0  0  0  0  0
   -4.7494   -0.1715   -0.9096 C   0  0  0  0  0  0  0  0  0  0  0  0
   -3.3512   -0.2039   -0.9576 C   0  0  0  0  0  0  0  0  0  0  0  0
   -2.6792   -0.7044   -2.0658 O   0  0  0  0  0  0  0  0  0  0  0  0
  1  2  2  0
  2  3  1  0
  3  4  1  0
  4  5  1  0
  5  6  2  3
  6  7  1  0
  7  8  1  0
  8  9  1  0
  9 10  1  0
 10 11  1  0
  2 12  1  0
 12 13  2  0
 13 14  1  0
 14 15  2  0
 15 16  1  0
 16 17  2  0
 17 18  1  0
 11  6  1  0
 17 12  1  0
M  END
>  <zinc_id>  (1) 
ZINC000003075213

>  <smiles>  (1) 
O=C(NNC=C1CCCCC1)c1ccccc1O

$$$$
