
     RDKit          3D

 22 24  0  0  0  0  0  0  0  0999 V2000
    1.1301   -1.9840   -0.3159 C   0  0  0  0  0  0  0  0  0  0  0  0
    1.5884   -1.0677   -1.6000 C   0  0  1  0  0  0  0  0  0  0  0  0
    0.6052    0.0335   -1.3902 O   0  0  0  0  0  0  0  0  0  0  0  0
    0.2545    0.3773   -0.1907 C   0  0  1  0  0  0  0  0  0  0  0  0
    0.4468    1.8112   -0.1436 O   0  0  0  0  0  0  0  0  0  0  0  0
   -1.1776    0.2211    0.1556 C   0  0  0  0  0  0  0  0  0  0  0  0
   -2.0299    1.2937   -0.0582 C   0  0  0  0  0  0  0  0  0  0  0  0
   -3.3842    1.2309    0.3015 C   0  0  0  0  0  0  0  0  0  0  0  0
   -3.9103    0.1049    0.8839 C   0  0  0  0  0  0  0  0  0  0  0  0
   -5.2863    0.0551    1.2939 N   0  0  0  0  0  4  0  0  0  0  0  0
   -6.0680    1.0224    1.1550 O   0  0  0  0  0  0  0  0  0  0  0  0
   -5.7876   -1.0842    1.8691 O   0  0  0  0  0  1  0  0  0  0  0  0
   -3.0645   -0.9519    1.0926 C   0  0  0  0  0  0  0  0  0  0  0  0
   -1.7324   -0.8768    0.7276 C   0  0  0  0  0  0  0  0  0  0  0  0
    1.1595    0.0232    0.9758 C   0  0  0  0  0  0  0  0  0  0  0  0
    2.5352    0.0523    0.4080 C   0  0  0  0  0  0  0  0  0  0  0  0
    2.7749   -0.3672   -0.8685 N   0  0  0  0  0  4  0  0  0  0  0  0
    3.7121   -1.5296   -0.7883 C   0  0  0  0  0  0  0  0  0  0  0  0
    4.9651   -1.1225   -0.0276 C   0  0  0  0  0  0  0  0  0  0  0  0
    5.1155    0.3902   -0.1391 C   0  0  0  0  0  0  0  0  0  0  0  0
    4.8056    0.8135   -1.5518 C   0  0  0  0  0  0  0  0  0  0  0  0
    3.3478    0.5706   -1.7890 C   0  0  0  0  0  0  0  0  0  0  0  0
  2  1  1  1
  2  3  1  0
  3  4  1  0
  4  5  1  6
  4  6  1  0
  6  7  2  0
  7  8  1  0
  8  9  2  0
  9 10  1  0
 10 11  2  0
 10 12  1  0
  9 13  1  0
 13 14  2  0
  4 15  1  0
 15 16  1  0
 16 17  1  0
 17 18  1  0
 18 19  1  0
 19 20  1  0
 20 21  1  0
 21 22  1  0
 17  2  1  0
 14  6  1  0
 22 17  1  0
M  CHG  3  10   1  12  -1  17   1
M  END
>  <zinc_id>  (1) 
ZINC000000162707

>  <smiles>  (1) 
C[C@H]1O[C@@](O)(c2ccc([N+](=O)[O-])cc2)CC[N+]12CCCCC2

$$$$
