
     RDKit          3D

 19 20  0  0  0  0  0  0  0  0999 V2000
   -4.0733    0.5768   -2.4150 C   0  0  0  0  0  0  0  0  0  0  0  0
   -3.5253    0.4662   -0.9861 C   0  0  0  0  0  0  0  0  0  0  0  0
   -4.6685    0.9499   -0.0849 C   0  0  0  0  0  0  0  0  0  0  0  0
   -3.1841   -0.9555   -0.7479 C   0  0  0  0  0  0  0  0  0  0  0  0
   -1.9692   -1.2006    0.0692 C   0  0  2  0  0  0  0  0  0  0  0  0
   -1.3223   -2.4936   -0.4486 C   0  0  0  0  0  0  0  0  0  0  0  0
   -2.2960   -1.4149    1.4133 O   0  0  0  0  0  0  0  0  0  0  0  0
   -0.9702   -0.1729   -0.0398 N   0  0  0  0  0  0  0  0  0  0  0  0
    0.3992   -0.5212    0.2861 C   0  0  0  0  0  0  0  0  0  0  0  0
    1.3114    0.6566    0.1220 C   0  0  0  0  0  0  0  0  0  0  0  0
    2.6969    0.2492    0.4666 C   0  0  0  0  0  0  0  0  0  0  0  0
    3.5509   -0.2524   -0.5043 C   0  0  0  0  0  0  0  0  0  0  0  0
    4.8383   -0.6429   -0.2403 C   0  0  0  0  0  0  0  0  0  0  0  0
    5.3015   -0.5283    1.0595 C   0  0  0  0  0  0  0  0  0  0  0  0
    4.4630   -0.0287    2.0460 C   0  0  0  0  0  0  0  0  0  0  0  0
    3.1693    0.3579    1.7534 C   0  0  0  0  0  0  0  0  0  0  0  0
   -1.2729    1.1521   -0.4495 C   0  0  0  0  0  0  0  0  0  0  0  0
    0.0036    2.4114   -0.3527 S   0  0  0  0  0  0  0  0  0  0  0  0
   -2.4523    1.3908   -0.8729 N   0  0  0  0  0  0  0  0  0  0  0  0
  1  2  1  0
  2  3  1  0
  2  4  1  0
  4  5  1  0
  5  6  1  6
  5  7  1  0
  5  8  1  0
  8  9  1  0
  9 10  1  0
 10 11  1  0
 11 12  2  0
 12 13  1  0
 13 14  2  0
 14 15  1  0
 15 16  2  0
  8 17  1  0
 17 18  1  0
 17 19  2  0
 19  2  1  0
 16 11  1  0
M  END
>  <zinc_id>  (1) 
ZINC000001252115

>  <smiles>  (1) 
CC1(C)C[C@](C)(O)N(CCc2ccccc2)C(S)=N1

$$$$
