
     RDKit          3D

 19 21  0  0  0  0  0  0  0  0999 V2000
    1.8037    0.1306   -1.3467 O   0  0  0  0  0  0  0  0  0  0  0  0
    0.9628   -0.4436   -0.6250 C   0  0  0  0  0  0  0  0  0  0  0  0
    1.2946   -1.6967   -0.0592 N   0  0  0  0  0  0  0  0  0  0  0  0
    2.5434   -2.3670   -0.2557 C   0  0  0  0  0  0  0  0  0  0  0  0
    3.6861   -1.5516    0.2307 C   0  0  0  0  0  0  0  0  0  0  0  0
    4.2711   -1.5191    1.4802 C   0  0  0  0  0  0  0  0  0  0  0  0
    5.3069   -0.5917    1.4318 C   0  0  0  0  0  0  0  0  0  0  0  0
    5.2880   -0.1057    0.1253 C   0  0  0  0  0  0  0  0  0  0  0  0
    4.3317   -0.6958   -0.5215 O   0  0  0  0  0  0  0  0  0  0  0  0
   -0.3522    0.1873   -0.3750 C   0  0  0  0  0  0  0  0  0  0  0  0
   -1.3895   -0.2795    0.3765 C   0  0  0  0  0  0  0  0  0  0  0  0
   -2.4908    0.4601    0.4644 C   0  0  0  0  0  0  0  0  0  0  0  0
   -2.5054    1.6521   -0.2139 C   0  0  0  0  0  0  0  0  0  0  0  0
   -0.9649    1.6748   -0.9445 S   0  0  0  0  0  0  0  0  0  0  0  0
   -3.5404    2.7242   -0.3479 C   0  0  0  0  0  0  0  0  0  0  0  0
   -4.9232    2.0912   -0.3502 C   0  0  0  0  0  0  0  0  0  0  0  0
   -4.8548    0.6573   -0.8232 C   0  0  0  0  0  0  0  0  0  0  0  0
   -4.7850   -0.3279    0.3041 C   0  0  0  0  0  0  0  0  0  0  0  0
   -3.6820    0.0009    1.2832 C   0  0  0  0  0  0  0  0  0  0  0  0
  1  2  2  0
  2  3  1  0
  3  4  1  0
  4  5  1  0
  5  6  2  0
  6  7  1  0
  7  8  2  0
  8  9  1  0
  2 10  1  0
 10 11  2  0
 11 12  1  0
 12 13  2  0
 13 14  1  0
 13 15  1  0
 15 16  1  0
 16 17  1  0
 17 18  1  0
 18 19  1  0
  9  5  1  0
 14 10  1  0
 19 12  1  0
M  END
>  <zinc_id>  (1) 
ZINC000001055022

>  <smiles>  (1) 
O=C(NCc1ccco1)c1cc2c(s1)CCCCC2

$$$$
