
     RDKit          3D

 18 19  0  0  0  0  0  0  0  0999 V2000
    5.9626   -1.4343   -0.7219 C   0  0  0  0  0  0  0  0  0  0  0  0
    5.9716   -0.1785    0.1223 C   0  0  0  0  0  0  0  0  0  0  0  0
    4.5306    0.2719    0.3032 C   0  0  0  0  0  0  0  0  0  0  0  0
    3.9077    0.5569   -1.0561 C   0  0  0  0  0  0  0  0  0  0  0  0
    2.5392    0.9879   -0.8779 N   0  0  0  0  0  0  0  0  0  0  0  0
    1.5182    0.1175   -0.4074 C   0  0  0  0  0  0  0  0  0  0  0  0
    1.8130   -1.4488   -0.0262 S   0  0  0  0  0  0  0  0  0  0  0  0
    0.2210    0.6799   -0.2837 N   0  0  0  0  0  0  0  0  0  0  0  0
   -0.8593   -0.0981    0.1745 C   0  0  0  0  0  0  0  0  0  0  0  0
   -0.6532   -1.4096    0.5055 C   0  0  0  0  0  0  0  0  0  0  0  0
   -1.6737   -2.2068    0.9569 C   0  0  0  0  0  0  0  0  0  0  0  0
   -2.9495   -1.6651    1.0803 C   0  0  0  0  0  0  0  0  0  0  0  0
   -3.1406   -0.3363    0.7412 C   0  0  0  0  0  0  0  0  0  0  0  0
   -4.3876    0.1892    0.8631 N   0  0  0  0  0  0  0  0  0  0  0  0
   -4.6451    1.4550    0.5563 C   0  0  0  0  0  0  0  0  0  0  0  0
   -3.6591    2.3044    0.0969 C   0  0  0  0  0  0  0  0  0  0  0  0
   -2.3871    1.7673   -0.0269 C   0  0  0  0  0  0  0  0  0  0  0  0
   -2.1087    0.4476    0.2910 C   0  0  0  0  0  0  0  0  0  0  0  0
  1  2  1  0
  2  3  1  0
  3  4  1  0
  4  5  1  0
  5  6  1  0
  6  7  2  0
  6  8  1  0
  8  9  1  0
  9 10  2  0
 10 11  1  0
 11 12  2  0
 12 13  1  0
 13 14  2  0
 14 15  1  0
 15 16  2  0
 16 17  1  0
 17 18  2  0
 18  9  1  0
 18 13  1  0
M  END
>  <zinc_id>  (1) 
ZINC000003504111

>  <smiles>  (1) 
CCCCNC(=S)Nc1cccc2ncccc12

$$$$
