
     RDKit          3D

 22 24  0  0  0  0  0  0  0  0999 V2000
   -3.9667   -3.7473   -1.9730 C   0  0  0  0  0  0  0  0  0  0  0  0
   -3.3081   -2.5434   -2.2780 O   0  0  0  0  0  0  0  0  0  0  0  0
   -2.7890   -1.6902   -1.3149 C   0  0  0  0  0  0  0  0  0  0  0  0
   -2.8551   -1.9137    0.0231 C   0  0  0  0  0  0  0  0  0  0  0  0
   -2.3025   -0.9938    0.9004 C   0  0  0  0  0  0  0  0  0  0  0  0
   -1.6805    0.1533    0.4618 C   0  0  0  0  0  0  0  0  0  0  0  0
   -1.0932    1.1282    1.4374 C   0  0  0  0  0  0  0  0  0  0  0  0
   -1.8882    1.7344    2.3145 N   0  0  0  0  0  0  0  0  0  0  0  0
   -0.8736    2.7234    3.2039 S   0  0  0  0  0  0  0  0  0  0  0  0
    0.5976    2.3537    2.4379 C   0  0  0  0  0  0  0  0  0  0  0  0
    1.9028    2.8411    2.6875 O   0  0  0  0  0  0  0  0  0  0  0  0
    0.2314    1.4410    1.4837 C   0  0  0  0  0  0  0  0  0  0  0  0
    1.2482    0.8446    0.5692 C   0  0  0  0  0  0  0  0  0  0  0  0
    1.5221   -0.5057    0.5642 C   0  0  0  0  0  0  0  0  0  0  0  0
    2.4648   -1.0535   -0.2844 C   0  0  0  0  0  0  0  0  0  0  0  0
    3.1711   -0.2659   -1.1632 C   0  0  0  0  0  0  0  0  0  0  0  0
    4.1329   -0.8250   -2.0289 O   0  0  0  0  0  0  0  0  0  0  0  0
    4.4105   -2.2033   -2.0311 C   0  0  0  0  0  0  0  0  0  0  0  0
    2.9092    1.0844   -1.1708 C   0  0  0  0  0  0  0  0  0  0  0  0
    1.9611    1.6238   -0.3148 C   0  0  0  0  0  0  0  0  0  0  0  0
   -1.6215    0.3656   -0.8951 C   0  0  0  0  0  0  0  0  0  0  0  0
   -2.1733   -0.5517   -1.7836 C   0  0  0  0  0  0  0  0  0  0  0  0
  1  2  1  0
  2  3  1  0
  3  4  2  0
  4  5  1  0
  5  6  2  0
  6  7  1  0
  7  8  2  0
  8  9  1  0
  9 10  1  0
 10 11  1  0
 10 12  2  0
 12 13  1  0
 13 14  2  0
 14 15  1  0
 15 16  2  0
 16 17  1  0
 17 18  1  0
 16 19  1  0
 19 20  2  0
  6 21  1  0
 21 22  2  0
 22  3  1  0
 12  7  1  0
 20 13  1  0
M  END
>  <zinc_id>  (1) 
ZINC000003199353

>  <smiles>  (1) 
COc1ccc(-c2nsc(O)c2-c2ccc(OC)cc2)cc1

$$$$
