
     RDKit          3D

 20 22  0  0  0  0  0  0  0  0999 V2000
   -4.2849    0.4965    2.5704 C   0  0  0  0  0  0  0  0  0  0  0  0
   -3.6583    0.2311    1.2467 C   0  0  0  0  0  0  0  0  0  0  0  0
   -2.2739    0.1327    1.0984 C   0  0  0  0  0  0  0  0  0  0  0  0
   -1.7078   -0.1138   -0.1350 C   0  0  0  0  0  0  0  0  0  0  0  0
   -0.2651   -0.2235   -0.3307 C   0  0  0  0  0  0  0  0  0  0  0  0
    0.6086   -0.1002    0.6297 C   0  0  0  0  0  0  0  0  0  0  0  0
    2.0357   -0.2202    0.3713 C   0  0  0  0  0  0  0  0  0  0  0  0
    2.5393   -0.4587   -0.8356 C   0  0  0  0  0  0  0  0  0  0  0  0
    3.9352   -0.5832   -1.1293 C   0  0  0  0  0  0  0  0  0  0  0  0
    4.8112    0.4843   -0.2575 C   0  0  1  0  0  0  0  0  0  0  0  0
    3.6847    1.6763   -0.2194 C   0  0  0  0  0  0  0  0  0  0  0  0
    4.4320   -0.1699    1.1926 C   0  0  0  0  0  0  0  0  0  0  0  0
    3.0331   -0.0859    1.4305 C   0  0  0  0  0  0  0  0  0  0  0  0
    2.5886    0.1136    2.5983 O   0  0  0  0  0  0  0  0  0  0  0  0
    1.5882   -0.5950   -1.8935 N   0  0  0  0  0  0  0  0  0  0  0  0
    0.2342   -0.4796   -1.6389 N   0  0  0  0  0  0  0  0  0  0  0  0
   -2.5778   -0.2549   -1.1963 C   0  0  0  0  0  0  0  0  0  0  0  0
   -3.9491   -0.1578   -1.0510 C   0  0  0  0  0  0  0  0  0  0  0  0
   -4.5172    0.0883    0.1799 C   0  0  0  0  0  0  0  0  0  0  0  0
   -6.2569    0.2200    0.4117 Cl  0  0  0  0  0  0  0  0  0  0  0  0
  1  2  1  0
  2  3  2  0
  3  4  1  0
  4  5  1  0
  5  6  2  0
  6  7  1  0
  7  8  2  0
  8  9  1  0
  9 10  1  0
 10 11  1  1
 10 12  1  0
 12 13  1  0
 13 14  2  0
  8 15  1  0
 15 16  1  0
  4 17  2  0
 17 18  1  0
 18 19  2  0
 19 20  1  0
 19  2  1  0
 16  5  1  0
 13  7  1  0
M  END
>  <zinc_id>  (1) 
ZINC000002561986

>  <smiles>  (1) 
Cc1cc(C2=CC3=C(C[C@@H](C)CC3=O)NN2)ccc1Cl

$$$$
