
     RDKit          3D

 23 25  0  0  0  0  0  0  0  0999 V2000
   -2.9364    3.4399    1.1594 C   0  0  0  0  0  0  0  0  0  0  0  0
   -3.2790    2.5843    0.0959 O   0  0  0  0  0  0  0  0  0  0  0  0
   -2.7102    1.3113   -0.0404 C   0  0  0  0  0  0  0  0  0  0  0  0
   -1.7912    0.8207    0.8450 C   0  0  0  0  0  0  0  0  0  0  0  0
   -1.2036   -0.4535    0.7328 C   0  0  0  0  0  0  0  0  0  0  0  0
   -0.1601   -0.8504    1.7040 C   0  0  0  0  0  0  0  0  0  0  0  0
    1.2028   -0.4663    1.2671 C   0  0  0  0  0  0  0  0  0  0  0  0
    2.1527   -1.1566    0.6623 N   0  0  0  0  0  0  0  0  0  0  0  0
    3.2608   -0.4445    0.4324 C   0  0  0  0  0  0  0  0  0  0  0  0
    4.4916   -0.6557   -0.1373 C   0  0  0  0  0  0  0  0  0  0  0  0
    5.4413    0.3625   -0.2066 C   0  0  0  0  0  0  0  0  0  0  0  0
    5.1769    1.5996    0.2897 C   0  0  0  0  0  0  0  0  0  0  0  0
    3.9503    1.8358    0.8655 C   0  0  0  0  0  0  0  0  0  0  0  0
    3.0011    0.8104    0.9322 C   0  0  0  0  0  0  0  0  0  0  0  0
    1.7564    0.7732    1.4296 N   0  0  0  0  0  0  0  0  0  0  0  0
   -1.5510   -1.2708   -0.3051 C   0  0  0  0  0  0  0  0  0  0  0  0
   -1.0900   -2.6007   -0.5068 N   0  0  0  0  0  4  0  0  0  0  0  0
   -1.8962   -3.3805   -1.1069 O   0  0  0  0  0  0  0  0  0  0  0  0
    0.0783   -3.0975   -0.1328 O   0  0  0  0  0  1  0  0  0  0  0  0
   -2.4988   -0.7550   -1.2142 C   0  0  0  0  0  0  0  0  0  0  0  0
   -3.0553    0.4842   -1.0876 C   0  0  0  0  0  0  0  0  0  0  0  0
   -3.9993    0.9854   -2.0022 O   0  0  0  0  0  0  0  0  0  0  0  0
   -4.3411    0.1242   -3.0694 C   0  0  0  0  0  0  0  0  0  0  0  0
  1  2  1  0
  2  3  1  0
  3  4  2  0
  4  5  1  0
  5  6  1  0
  6  7  1  0
  7  8  2  0
  8  9  1  0
  9 10  2  0
 10 11  1  0
 11 12  2  0
 12 13  1  0
 13 14  2  0
 14 15  1  0
  5 16  2  0
 16 17  1  0
 17 18  2  0
 17 19  1  0
 16 20  1  0
 20 21  2  0
 21 22  1  0
 22 23  1  0
 21  3  1  0
 15  7  1  0
 14  9  1  0
M  CHG  2  17   1  19  -1
M  END
>  <zinc_id>  (1) 
ZINC000000282386

>  <smiles>  (1) 
COc1cc(Cc2nc3ccccc3[nH]2)c([N+](=O)[O-])cc1OC

$$$$
