
     RDKit          3D

 19 19  0  0  0  0  0  0  0  0999 V2000
    4.8141   -2.8131    0.4199 C   0  0  0  0  0  0  0  0  0  0  0  0
    4.1513   -1.9588   -0.1090 C   0  0  0  0  0  0  0  0  0  0  0  0
    3.3346   -0.9267   -0.7564 C   0  0  2  0  0  0  0  0  0  0  0  0
    3.3135   -1.2379   -2.2357 C   0  0  0  0  0  0  0  0  0  0  0  0
    4.0153    0.3931   -0.5562 C   0  0  0  0  0  0  0  0  0  0  0  0
    4.1769    0.7474    0.9009 C   0  0  0  0  0  0  0  0  0  0  0  0
    2.0467   -0.9791   -0.1819 O   0  0  0  0  0  0  0  0  0  0  0  0
    1.0282   -0.1087   -0.5933 C   0  0  0  0  0  0  0  0  0  0  0  0
    1.3425    0.7087   -1.4974 O   0  0  0  0  0  0  0  0  0  0  0  0
   -0.2747   -0.1594   -0.0144 N   0  0  0  0  0  0  0  0  0  0  0  0
   -1.2495    0.7591   -0.4893 C   0  0  0  0  0  0  0  0  0  0  0  0
   -0.9343    1.5748   -1.3922 O   0  0  0  0  0  0  0  0  0  0  0  0
   -2.6143    0.7907    0.0366 C   0  0  0  0  0  0  0  0  0  0  0  0
   -3.5396    1.6923   -0.4424 C   0  0  0  0  0  0  0  0  0  0  0  0
   -4.8320    1.7313    0.0469 C   0  0  0  0  0  0  0  0  0  0  0  0
   -5.2513    0.8677    1.0376 C   0  0  0  0  0  0  0  0  0  0  0  0
   -4.3305   -0.0381    1.5226 C   0  0  0  0  0  0  0  0  0  0  0  0
   -3.0351   -0.0720    1.0270 C   0  0  0  0  0  0  0  0  0  0  0  0
   -2.1617   -0.9713    1.5250 F   0  0  0  0  0  0  0  0  0  0  0  0
  1  2  3  0
  2  3  1  0
  3  4  1  6
  3  5  1  0
  5  6  1  0
  3  7  1  0
  7  8  1  0
  8  9  2  0
  8 10  1  0
 10 11  1  0
 11 12  2  0
 11 13  1  0
 13 14  2  0
 14 15  1  0
 15 16  2  0
 16 17  1  0
 17 18  2  0
 18 19  1  0
 18 13  1  0
M  END
>  <zinc_id>  (1) 
ZINC000002161454

>  <smiles>  (1) 
C#C[C@](C)(CC)OC(=O)NC(=O)c1ccccc1F

$$$$
