
     RDKit          3D

 19 20  0  0  0  0  0  0  0  0999 V2000
    1.6379   -1.0089   -1.6136 O   0  0  0  0  0  0  0  0  0  0  0  0
    1.9370    0.0111   -0.9604 C   0  0  0  0  0  0  0  0  0  0  0  0
    0.9000    0.5811   -0.1599 N   0  0  0  0  0  0  0  0  0  0  0  0
   -0.4047    0.0291   -0.1001 C   0  0  0  0  0  0  0  0  0  0  0  0
   -0.7748   -1.3026   -0.9602 S   0  0  0  0  0  0  0  0  0  0  0  0
   -1.4092    0.6191    0.7036 N   0  0  0  0  0  0  0  0  0  0  0  0
   -2.7283    0.1110    0.8015 C   0  0  0  0  0  0  0  0  0  0  0  0
   -3.1582   -1.0038    0.1248 C   0  0  0  0  0  0  0  0  0  0  0  0
   -4.4533   -1.4454    0.2636 C   0  0  0  0  0  0  0  0  0  0  0  0
   -5.3384   -0.7695    1.0882 C   0  0  0  0  0  0  0  0  0  0  0  0
   -4.9177    0.3569    1.7769 C   0  0  0  0  0  0  0  0  0  0  0  0
   -5.7991    1.0418    2.6069 O   0  0  0  0  0  0  0  0  0  0  0  0
   -3.6179    0.7685    1.6140 C   0  0  0  0  0  0  0  0  0  0  0  0
    3.2997    0.6000   -1.0137 C   0  0  0  0  0  0  0  0  0  0  0  0
    4.1341   -0.2474   -1.9479 C   0  0  0  0  0  0  0  0  0  0  0  0
    5.5001    0.4022   -2.1080 C   0  0  0  0  0  0  0  0  0  0  0  0
    5.9131    1.1347   -0.8427 C   0  0  0  0  0  0  0  0  0  0  0  0
    5.3884    0.3957    0.3516 C   0  0  0  0  0  0  0  0  0  0  0  0
    3.8913    0.4779    0.3752 C   0  0  0  0  0  0  0  0  0  0  0  0
  1  2  2  0
  2  3  1  0
  3  4  1  0
  4  5  2  0
  4  6  1  0
  6  7  1  0
  7  8  2  0
  8  9  1  0
  9 10  2  0
 10 11  1  0
 11 12  1  0
 11 13  2  0
  2 14  1  0
 14 15  1  0
 15 16  1  0
 16 17  1  0
 17 18  1  0
 18 19  1  0
 13  7  1  0
 19 14  1  0
M  END
>  <zinc_id>  (1) 
ZINC000003305074

>  <smiles>  (1) 
O=C(NC(=S)Nc1cccc(O)c1)C1CCCCC1

$$$$
