
     RDKit          3D

 19 20  0  0  0  0  0  0  0  0999 V2000
   -5.4421    0.1956   -0.9959 C   0  0  0  0  0  0  0  0  0  0  0  0
   -5.0496    0.2226    0.4824 C   0  0  0  0  0  0  0  0  0  0  0  0
   -5.9822    1.0872    1.2801 C   0  0  0  0  0  0  0  0  0  0  0  0
   -4.9926   -1.1889    0.9784 C   0  0  0  0  0  0  0  0  0  0  0  0
   -3.7148    0.7566    0.5006 O   0  0  0  0  0  0  0  0  0  0  0  0
   -2.6760    0.1302   -0.1597 C   0  0  0  0  0  0  0  0  0  0  0  0
   -2.9726   -0.9412   -0.7805 O   0  0  0  0  0  0  0  0  0  0  0  0
   -1.3374    0.6310   -0.1638 N   0  0  0  0  0  0  0  0  0  0  0  0
   -0.3651   -0.1273   -0.8932 C   0  0  0  0  0  0  0  0  0  0  0  0
    1.0024    0.4049   -0.8840 C   0  0  0  0  0  0  0  0  0  0  0  0
    1.4987    0.4600    0.6863 C   0  0  1  0  0  0  0  0  0  0  0  0
    1.3242   -1.1540    0.9176 C   0  0  0  0  0  0  0  0  0  0  0  0
    2.5278   -1.2962    1.7260 N   0  0  0  0  0  0  0  0  0  0  0  0
    3.5903   -0.6627    0.9957 C   0  0  0  0  0  0  0  0  0  0  0  0
    4.9349   -0.9235    0.8703 C   0  0  0  0  0  0  0  0  0  0  0  0
    5.6943   -0.1066    0.0496 C   0  0  0  0  0  0  0  0  0  0  0  0
    5.1298    0.9463   -0.6316 C   0  0  0  0  0  0  0  0  0  0  0  0
    3.7832    1.1943   -0.4954 C   0  0  0  0  0  0  0  0  0  0  0  0
    3.0467    0.3715    0.3251 C   0  0  0  0  0  0  0  0  0  0  0  0
  1  2  1  0
  2  3  1  0
  2  4  1  0
  2  5  1  0
  5  6  1  0
  6  7  2  0
  6  8  1  0
  8  9  1  0
  9 10  1  0
 11 10  1  6
 11 12  1  0
 12 13  1  0
 13 14  1  0
 14 15  2  0
 15 16  1  0
 16 17  2  0
 17 18  1  0
 18 19  2  0
 19 11  1  0
 19 14  1  0
M  END
>  <zinc_id>  (1) 
ZINC000001859746

>  <smiles>  (1) 
CC(C)(C)OC(=O)NCC[C@H]1CNc2ccccc21

$$$$
