
     RDKit          3D

 19 21  0  0  0  0  0  0  0  0999 V2000
    5.3123   -1.2867    0.6345 C   0  0  0  0  0  0  0  0  0  0  0  0
    4.0404   -0.1582    0.5275 S   0  0  0  0  0  0  0  0  0  0  0  0
    4.3789    0.9593    1.6070 O   0  0  0  0  0  0  0  0  0  0  0  0
    4.3774    0.6842   -0.7608 O   0  0  0  0  0  0  0  0  0  0  0  0
    2.5074   -0.3558    0.7053 O   0  0  0  0  0  0  0  0  0  0  0  0
    1.6271   -1.1274    0.0871 C   0  0  0  0  0  0  0  0  0  0  0  0
    1.4729   -0.2327   -1.3402 C   0  0  2  0  0  0  0  0  0  0  0  0
    1.1163    1.1982   -0.7176 C   0  0  0  0  0  0  0  0  0  0  0  0
    0.7855    1.1905    0.7195 C   0  0  0  0  0  0  0  0  0  0  0  0
   -0.6388    0.6397    0.5351 C   0  0  0  0  0  0  0  0  0  0  0  0
   -1.7645    0.9384    1.2525 N   0  0  0  0  0  0  0  0  0  0  0  0
   -2.8141    0.3112    0.5905 C   0  0  0  0  0  0  0  0  0  0  0  0
   -4.1876    0.3555    0.7720 C   0  0  0  0  0  0  0  0  0  0  0  0
   -5.0701   -0.1924   -0.0409 C   0  0  0  0  0  0  0  0  0  0  0  0
   -4.5719   -0.8599   -1.1263 C   0  0  0  0  0  0  0  0  0  0  0  0
   -3.2351   -0.9212   -1.3391 C   0  0  0  0  0  0  0  0  0  0  0  0
   -2.3089   -0.3347   -0.5144 C   0  0  0  0  0  0  0  0  0  0  0  0
   -0.9670   -0.1209   -0.4984 C   0  0  0  0  0  0  0  0  0  0  0  0
   -0.0602   -0.6871   -1.5452 C   0  0  0  0  0  0  0  0  0  0  0  0
  1  2  1  0
  2  3  2  0
  2  4  2  0
  2  5  1  0
  5  6  1  0
  7  6  1  1
  7  8  1  0
  8  9  1  0
  9 10  1  0
 10 11  1  0
 11 12  1  0
 12 13  2  0
 13 14  1  0
 14 15  2  0
 15 16  1  0
 16 17  2  0
 17 18  1  0
 18 19  1  0
 19  7  1  0
 18 10  2  0
 17 12  1  0
M  END
>  <zinc_id>  (1) 
ZINC000001744290

>  <smiles>  (1) 
CS(=O)(=O)OC[C@@H]1CCc2[nH]c3ccccc3c2C1

$$$$
