
     RDKit          3D

 18 20  0  0  0  0  0  0  0  0999 V2000
    5.6325    0.3457    0.3421 C   0  0  0  0  0  0  0  0  0  0  0  0
    5.4261   -1.1260    0.6475 C   0  0  0  0  0  0  0  0  0  0  0  0
    4.2822   -1.5648   -0.1120 N   0  0  0  0  0  0  0  0  0  0  0  0
    3.0265   -0.8800    0.1722 C   0  0  0  0  0  0  0  0  0  0  0  0
    1.8542   -1.0858   -0.3725 N   0  0  0  0  0  0  0  0  0  0  0  0
    0.8152   -0.3737    0.0022 C   0  0  0  0  0  0  0  0  0  0  0  0
   -0.5600   -0.5394   -0.5642 C   0  0  0  0  0  0  0  0  0  0  0  0
   -0.9242   -1.4376   -1.5330 C   0  0  0  0  0  0  0  0  0  0  0  0
   -2.2598   -1.2956   -1.7928 N   0  0  0  0  0  0  0  0  0  0  0  0
   -2.7548   -0.3227   -1.0070 C   0  0  0  0  0  0  0  0  0  0  0  0
   -4.0089    0.2434   -0.8360 C   0  0  0  0  0  0  0  0  0  0  0  0
   -4.1984    1.2547    0.0771 C   0  0  0  0  0  0  0  0  0  0  0  0
   -3.1762    1.7269    0.8326 C   0  0  0  0  0  0  0  0  0  0  0  0
   -3.3127    2.8108    1.8311 C   0  0  0  0  0  0  0  0  0  0  0  0
   -1.9229    1.1566    0.6575 C   0  0  0  0  0  0  0  0  0  0  0  0
   -1.7017    0.1425   -0.2489 C   0  0  0  0  0  0  0  0  0  0  0  0
    1.0612    0.5718    0.9814 C   0  0  0  0  0  0  0  0  0  0  0  0
    2.7216    0.3730    1.2829 S   0  0  0  0  0  0  0  0  0  0  0  0
  1  2  1  0
  2  3  1  0
  3  4  1  0
  4  5  2  0
  5  6  1  0
  6  7  1  0
  7  8  2  0
  8  9  1  0
  9 10  1  0
 10 11  2  0
 11 12  1  0
 12 13  2  0
 13 14  1  0
 13 15  1  0
 15 16  2  0
  6 17  2  0
 17 18  1  0
 18  4  1  0
 16  7  1  0
 16 10  1  0
M  END
>  <zinc_id>  (1) 
ZINC000002330094

>  <smiles>  (1) 
CCNc1nc(-c2c[nH]c3ccc(C)cc23)cs1

$$$$
