
     RDKit          3D

 21 23  0  0  0  0  0  0  0  0999 V2000
   -0.4292   -0.4744   -3.2766 O   0  0  0  0  0  0  0  0  0  0  0  0
    0.2966   -0.2715   -2.2470 C   0  0  0  0  0  0  0  0  0  0  0  0
    1.6130    0.2784   -2.2192 N   0  0  0  0  0  0  0  0  0  0  0  0
    2.1222    0.0820   -0.8787 C   0  0  0  0  0  0  0  0  0  0  0  0
    2.7790    1.3315   -0.3252 C   0  0  0  0  0  0  0  0  0  0  0  0
    2.8597    1.1217    1.1933 C   0  0  0  0  0  0  0  0  0  0  0  0
    4.2183    0.6040    1.5940 C   0  0  0  0  0  0  0  0  0  0  0  0
    4.3885   -0.8574    1.3631 C   0  0  0  0  0  0  0  0  0  0  0  0
    3.2451   -1.4996    0.6233 C   0  0  0  0  0  0  0  0  0  0  0  0
    3.1421   -1.0329   -0.8053 C   0  0  0  0  0  0  0  0  0  0  0  0
    0.9177   -0.2277   -0.0527 C   0  0  0  0  0  0  0  0  0  0  0  0
    0.8887   -0.1697    1.2039 O   0  0  0  0  0  0  0  0  0  0  0  0
   -0.1440   -0.5861   -0.9360 N   0  0  0  0  0  0  0  0  0  0  0  0
   -1.3872   -1.1528   -0.4841 C   0  0  0  0  0  0  0  0  0  0  0  0
   -2.4115   -0.1426   -0.1784 C   0  0  0  0  0  0  0  0  0  0  0  0
   -2.2076    1.2077   -0.3092 C   0  0  0  0  0  0  0  0  0  0  0  0
   -3.1944    2.1249   -0.0122 C   0  0  0  0  0  0  0  0  0  0  0  0
   -4.4253    1.7140    0.4285 C   0  0  0  0  0  0  0  0  0  0  0  0
   -4.6552    0.3642    0.5683 C   0  0  0  0  0  0  0  0  0  0  0  0
   -3.6462   -0.5575    0.2638 C   0  0  0  0  0  0  0  0  0  0  0  0
   -3.9701   -1.8564    0.4335 F   0  0  0  0  0  0  0  0  0  0  0  0
  1  2  2  0
  2  3  1  0
  3  4  1  0
  4  5  1  0
  5  6  1  0
  6  7  1  0
  7  8  1  0
  8  9  1  0
  9 10  1  0
  4 11  1  0
 11 12  2  0
 11 13  1  0
 13 14  1  0
 14 15  1  0
 15 16  2  0
 16 17  1  0
 17 18  2  0
 18 19  1  0
 19 20  2  0
 20 21  1  0
 13  2  1  0
 20 15  1  0
 10  4  1  0
M  END
>  <zinc_id>  (1) 
ZINC000003318814

>  <smiles>  (1) 
O=C1NC2(CCCCCC2)C(=O)N1Cc1ccccc1F

$$$$
