
     RDKit          3D

 22 24  0  0  0  0  0  0  0  0999 V2000
   -2.1407    4.4473   -0.4435 C   0  0  0  0  0  0  0  0  0  0  0  0
   -1.2928    3.3796   -0.7849 O   0  0  0  0  0  0  0  0  0  0  0  0
   -0.8781    2.4691    0.1310 C   0  0  0  0  0  0  0  0  0  0  0  0
   -1.2538    2.5765    1.3014 O   0  0  0  0  0  0  0  0  0  0  0  0
    0.0208    1.3790   -0.3472 C   0  0  0  0  0  0  0  0  0  0  0  0
    0.3831    1.2984   -1.5401 C   0  0  0  0  0  0  0  0  0  0  0  0
   -0.1211    2.3286   -2.4405 N   0  0  0  0  0  0  0  0  0  0  0  0
    1.2034    0.3044   -1.9753 O   0  0  0  0  0  0  0  0  0  0  0  0
    1.6600   -0.6436   -1.1128 C   0  0  0  0  0  0  0  0  0  0  0  0
    1.3638   -0.6670    0.1175 C   0  0  0  0  0  0  0  0  0  0  0  0
    1.8705   -1.7105    1.0527 C   0  0  0  0  0  0  0  0  0  0  0  0
    1.1489   -2.2093    1.9236 O   0  0  0  0  0  0  0  0  0  0  0  0
    3.2901   -2.0598    0.8165 C   0  0  0  0  0  0  0  0  0  0  0  0
    3.6824   -2.0174   -0.6194 C   0  0  0  0  0  0  0  0  0  0  0  0
    2.5781   -1.7654   -1.5821 C   0  0  0  0  0  0  0  0  0  0  0  0
    0.4145    0.3949    0.8385 C   0  0  2  0  0  0  0  0  0  0  0  0
   -0.9092   -0.5035    0.8637 C   0  0  0  0  0  0  0  0  0  0  0  0
   -1.6001   -0.8903   -0.1651 C   0  0  0  0  0  0  0  0  0  0  0  0
   -2.7191   -1.6599   -0.0149 C   0  0  0  0  0  0  0  0  0  0  0  0
   -3.0944   -2.0145    1.2582 C   0  0  0  0  0  0  0  0  0  0  0  0
   -2.3700   -1.6117    2.3720 C   0  0  0  0  0  0  0  0  0  0  0  0
   -1.2361   -0.8252    2.1357 C   0  0  0  0  0  0  0  0  0  0  0  0
  1  2  1  0
  2  3  1  0
  3  4  2  0
  3  5  1  0
  5  6  2  0
  6  7  1  0
  6  8  1  0
  8  9  1  0
  9 10  2  0
 10 11  1  0
 11 12  2  0
 11 13  1  0
 13 14  1  0
 14 15  1  0
 10 16  1  0
 16 17  1  6
 17 18  2  0
 18 19  1  0
 19 20  2  0
 20 21  1  0
 21 22  2  0
 16  5  1  0
 22 17  1  0
 15  9  1  0
M  END
>  <zinc_id>  (1) 
ZINC000000536292

>  <smiles>  (1) 
COC(=O)C1=C(N)OC2=C(C(=O)CCC2)[C@@H]1c1ccccc1

$$$$
