
     RDKit          3D

 20 22  0  0  0  0  0  0  0  0999 V2000
    5.6793   -1.4503    0.3074 C   0  0  0  0  0  0  0  0  0  0  0  0
    4.2188   -1.1953    0.2695 C   0  0  0  0  0  0  0  0  0  0  0  0
    3.3418   -1.9938    0.6794 O   0  0  0  0  0  0  0  0  0  0  0  0
    3.7682    0.0387   -0.2675 N   0  0  0  0  0  0  0  0  0  0  0  0
    2.3705    0.3390   -0.3294 C   0  0  0  0  0  0  0  0  0  0  0  0
    1.9213    1.5340   -0.8488 C   0  0  0  0  0  0  0  0  0  0  0  0
    0.5678    1.8471   -0.9188 C   0  0  0  0  0  0  0  0  0  0  0  0
   -0.3812    0.9549   -0.4625 C   0  0  0  0  0  0  0  0  0  0  0  0
    0.0480   -0.2476    0.0614 C   0  0  0  0  0  0  0  0  0  0  0  0
    1.3982   -0.5314    0.1183 C   0  0  0  0  0  0  0  0  0  0  0  0
   -1.0856   -0.9310    0.4327 C   0  0  0  0  0  0  0  0  0  0  0  0
   -1.2780   -2.1822    1.0118 C   0  0  0  0  0  0  0  0  0  0  0  0
   -2.5495   -2.6331    1.2848 C   0  0  0  0  0  0  0  0  0  0  0  0
   -3.6214   -1.8523    0.9870 C   0  0  0  0  0  0  0  0  0  0  0  0
   -3.4290   -0.6130    0.4132 C   0  0  0  0  0  0  0  0  0  0  0  0
   -2.1716   -0.1174    0.1207 C   0  0  0  0  0  0  0  0  0  0  0  0
   -1.7163    1.0207   -0.4211 N   0  0  0  0  0  0  0  0  0  0  0  0
   -2.5610    2.1243   -0.8777 C   0  0  0  0  0  0  0  0  0  0  0  0
   -2.7797    3.0074    0.3547 C   0  0  0  0  0  0  0  0  0  0  0  0
   -1.7407    2.8813   -1.9149 C   0  0  0  0  0  0  0  0  0  0  0  0
  1  2  1  0
  2  3  2  0
  2  4  1  0
  4  5  1  0
  5  6  2  0
  6  7  1  0
  7  8  2  0
  8  9  1  0
  9 10  2  0
  9 11  1  0
 11 12  2  0
 12 13  1  0
 13 14  2  0
 14 15  1  0
 15 16  2  0
 16 17  1  0
 17 18  1  0
 18 19  1  0
 18 20  1  0
 10  5  1  0
 16 11  1  0
 17  8  1  0
M  END
>  <zinc_id>  (1) 
ZINC000001911903

>  <smiles>  (1) 
CC(=O)Nc1ccc2c(c1)c1ccccc1n2C(C)C

$$$$
