
     RDKit          3D

 19 21  0  0  0  0  0  0  0  0999 V2000
    5.1529    0.5876    3.2955 C   0  0  0  0  0  0  0  0  0  0  0  0
    4.9664    0.1920    1.8424 C   0  0  0  0  0  0  0  0  0  0  0  0
    3.5822    0.2103    1.5638 O   0  0  0  0  0  0  0  0  0  0  0  0
    3.0538   -0.1023    0.3211 C   0  0  0  0  0  0  0  0  0  0  0  0
    3.8057   -0.4160   -0.6075 O   0  0  0  0  0  0  0  0  0  0  0  0
    1.6050   -0.0457    0.1624 C   0  0  0  0  0  0  0  0  0  0  0  0
    0.6813    0.2780    1.0836 N   0  0  0  0  0  0  0  0  0  0  0  0
   -0.5683    0.2164    0.5546 C   0  0  0  0  0  0  0  0  0  0  0  0
   -1.8183    0.4526    1.0840 C   0  0  0  0  0  0  0  0  0  0  0  0
   -2.9705    0.3123    0.2992 C   0  0  0  0  0  0  0  0  0  0  0  0
   -4.2661    0.4877    0.6010 N   0  0  0  0  0  0  0  0  0  0  0  0
   -4.9851    0.2284   -0.4988 C   0  0  0  0  0  0  0  0  0  0  0  0
   -4.1469   -0.1208   -1.5320 C   0  0  0  0  0  0  0  0  0  0  0  0
   -2.8787   -0.0652   -1.0198 C   0  0  0  0  0  0  0  0  0  0  0  0
   -1.6013   -0.2981   -1.5301 C   0  0  0  0  0  0  0  0  0  0  0  0
   -1.5031   -0.7035   -2.9468 C   0  0  0  0  0  0  0  0  0  0  0  0
   -0.4631   -0.1624   -0.7655 C   0  0  0  0  0  0  0  0  0  0  0  0
    0.8868   -0.3228   -1.0004 C   0  0  0  0  0  0  0  0  0  0  0  0
    1.4674   -0.7285   -2.2981 C   0  0  0  0  0  0  0  0  0  0  0  0
  1  2  1  0
  2  3  1  0
  3  4  1  0
  4  5  2  0
  4  6  1  0
  6  7  1  0
  7  8  1  0
  8  9  2  0
  9 10  1  0
 10 11  1  0
 11 12  1  0
 12 13  2  0
 13 14  1  0
 14 15  1  0
 15 16  1  0
 15 17  2  0
 17 18  1  0
 18 19  1  0
 18  6  2  0
 17  8  1  0
 14 10  2  0
M  END
>  <zinc_id>  (1) 
ZINC000000020300

>  <smiles>  (1) 
CCOC(=O)c1[nH]c2cc3[nH]ccc3c(C)c2c1C

$$$$
