
     RDKit          3D

 20 22  0  0  0  0  0  0  0  0999 V2000
   -3.1349    3.0773   -0.5349 C   0  0  0  0  0  0  0  0  0  0  0  0
   -2.3031    2.7074    0.6607 C   0  0  0  0  0  0  0  0  0  0  0  0
   -1.6086    1.4177    0.5076 C   0  0  0  0  0  0  0  0  0  0  0  0
   -2.3150    0.2481    0.6454 C   0  0  0  0  0  0  0  0  0  0  0  0
   -3.6742    0.2957    0.9244 O   0  0  0  0  0  0  0  0  0  0  0  0
   -1.6863   -0.9785    0.5094 C   0  0  0  0  0  0  0  0  0  0  0  0
   -0.3250   -0.9963    0.2301 C   0  0  0  0  0  0  0  0  0  0  0  0
    0.3663    0.1444    0.0951 N   0  0  0  0  0  0  0  0  0  0  0  0
    1.7589    0.1659   -0.1915 C   0  0  0  0  0  0  0  0  0  0  0  0
    2.5011    1.3249    0.0456 C   0  0  0  0  0  0  0  0  0  0  0  0
    3.8356    1.4457   -0.2011 C   0  0  0  0  0  0  0  0  0  0  0  0
    4.5208    0.3718   -0.7173 C   0  0  0  0  0  0  0  0  0  0  0  0
    3.8212   -0.7891   -0.9643 C   0  0  0  0  0  0  0  0  0  0  0  0
    2.4617   -0.8997   -0.7088 C   0  0  0  0  0  0  0  0  0  0  0  0
   -0.2679    1.3463    0.2321 C   0  0  0  0  0  0  0  0  0  0  0  0
    0.4186    2.4008    0.0981 O   0  0  0  0  0  0  0  0  0  0  0  0
    0.4105   -2.2904    0.0747 C   0  0  0  0  0  0  0  0  0  0  0  0
   -0.4361   -3.4516    0.5129 C   0  0  0  0  0  0  0  0  0  0  0  0
   -1.8326   -3.3440   -0.0589 C   0  0  0  0  0  0  0  0  0  0  0  0
   -2.5109   -2.1966    0.6728 C   0  0  0  0  0  0  0  0  0  0  0  0
  1  2  1  0
  2  3  1  0
  3  4  2  0
  4  5  1  0
  4  6  1  0
  6  7  2  0
  7  8  1  0
  8  9  1  0
  9 10  2  0
 10 11  1  0
 11 12  2  0
 12 13  1  0
 13 14  2  0
  8 15  1  0
 15 16  2  0
  7 17  1  0
 17 18  1  0
 18 19  1  0
 19 20  1  0
 15  3  1  0
 20  6  1  0
 14  9  1  0
M  END
>  <zinc_id>  (1) 
ZINC000003958082

>  <smiles>  (1) 
CCc1c(O)c2c(n(-c3ccccc3)c1=O)CCCC2

$$$$
