
     RDKit          3D

 23 25  0  0  0  0  0  0  0  0999 V2000
   -5.6588   -0.3139    2.0868 C   0  0  0  0  0  0  0  0  0  0  0  0
   -4.7925   -0.1925    0.8838 C   0  0  0  0  0  0  0  0  0  0  0  0
   -5.4165    0.0340   -0.3341 C   0  0  0  0  0  0  0  0  0  0  0  0
   -6.7834    0.1438   -0.4361 O   0  0  0  0  0  0  0  0  0  0  0  0
   -4.6230    0.1461   -1.4416 C   0  0  0  0  0  0  0  0  0  0  0  0
   -3.2547    0.0361   -1.3388 C   0  0  0  0  0  0  0  0  0  0  0  0
   -2.6172   -0.1916   -0.1197 C   0  0  0  0  0  0  0  0  0  0  0  0
   -1.1669   -0.3037   -0.0406 C   0  0  0  0  0  0  0  0  0  0  0  0
   -0.6483   -0.5073    1.0733 O   0  0  0  0  0  0  0  0  0  0  0  0
   -0.3371   -0.1803   -1.2405 C   0  0  0  0  0  0  0  0  0  0  0  0
    1.1069   -0.3252   -0.9403 C   0  0  0  0  0  0  0  0  0  0  0  0
    1.7614   -1.5351   -0.9592 C   0  0  0  0  0  0  0  0  0  0  0  0
    3.1089   -1.6410   -0.6751 C   0  0  0  0  0  0  0  0  0  0  0  0
    3.8592   -0.5333   -0.3589 C   0  0  0  0  0  0  0  0  0  0  0  0
    3.2214    0.6921   -0.3342 C   0  0  0  0  0  0  0  0  0  0  0  0
    1.8739    0.7868   -0.6198 C   0  0  0  0  0  0  0  0  0  0  0  0
    3.8178    1.9069   -0.0376 O   0  0  0  0  0  0  0  0  0  0  0  0
    5.1929    2.2883   -0.0831 C   0  0  0  0  0  0  0  0  0  0  0  0
    6.0606    1.2879    0.6460 C   0  0  0  0  0  0  0  0  0  0  0  0
    6.3277    0.0477   -0.1492 C   0  0  0  0  0  0  0  0  0  0  0  0
    5.1968   -0.8127   -0.1005 O   0  0  0  0  0  0  0  0  0  0  0  0
   -3.4256   -0.3031    0.9912 C   0  0  0  0  0  0  0  0  0  0  0  0
   -2.8035   -0.5299    2.2112 O   0  0  0  0  0  0  0  0  0  0  0  0
  1  2  1  0
  2  3  2  0
  3  4  1  0
  3  5  1  0
  5  6  2  0
  6  7  1  0
  7  8  1  0
  8  9  2  0
  8 10  1  0
 10 11  1  0
 11 12  2  0
 12 13  1  0
 13 14  2  0
 14 15  1  0
 15 16  2  0
 15 17  1  0
 17 18  1  0
 18 19  1  0
 19 20  1  0
 20 21  1  0
  7 22  2  0
 22 23  1  0
 22  2  1  0
 16 11  1  0
 21 14  1  0
M  END
>  <zinc_id>  (1) 
ZINC000000138880

>  <smiles>  (1) 
Cc1c(O)ccc(C(=O)Cc2ccc3c(c2)OCCCO3)c1O

$$$$
