
     RDKit          3D

 21 22  0  0  0  0  0  0  0  0999 V2000
   -4.8986    0.7887   -1.7678 C   0  0  0  0  0  0  0  0  0  0  0  0
   -3.5038    0.5525   -1.2517 C   0  0  0  0  0  0  0  0  0  0  0  0
   -2.4164    1.0229   -1.9653 C   0  0  0  0  0  0  0  0  0  0  0  0
   -1.1638    0.7773   -1.4446 C   0  0  0  0  0  0  0  0  0  0  0  0
   -0.9823    0.0924   -0.2621 C   0  0  0  0  0  0  0  0  0  0  0  0
    0.3682   -0.1352    0.2364 C   0  0  0  0  0  0  0  0  0  0  0  0
    0.5513   -0.7629    1.3218 O   0  0  0  0  0  0  0  0  0  0  0  0
    1.4903    0.3297   -0.4649 N   0  0  0  0  0  0  0  0  0  0  0  0
    2.8334    0.1504   -0.0494 C   0  0  0  0  0  0  0  0  0  0  0  0
    3.4796    1.0618    0.7551 C   0  0  0  0  0  0  0  0  0  0  0  0
    2.7099    2.2624    1.1825 C   0  0  0  0  0  0  0  0  0  0  0  0
    4.8019    0.8716    1.1556 C   0  0  0  0  0  0  0  0  0  0  0  0
    5.5061   -0.2422    0.7553 C   0  0  0  0  0  0  0  0  0  0  0  0
    4.8640   -1.1563   -0.0492 C   0  0  0  0  0  0  0  0  0  0  0  0
    3.5477   -0.9586   -0.4429 C   0  0  0  0  0  0  0  0  0  0  0  0
    2.9354   -1.9924   -1.3083 C   0  0  0  0  0  0  0  0  0  0  0  0
   -2.0895   -0.3611    0.4211 C   0  0  0  0  0  0  0  0  0  0  0  0
   -3.3722   -0.1344   -0.0698 C   0  0  0  0  0  0  0  0  0  0  0  0
   -4.5107   -0.5978    0.6276 N   0  0  0  0  0  4  0  0  0  0  0  0
   -4.4233   -1.6005    1.3634 O   0  0  0  0  0  0  0  0  0  0  0  0
   -5.7272    0.0317    0.5178 O   0  0  0  0  0  1  0  0  0  0  0  0
  1  2  1  0
  2  3  2  0
  3  4  1  0
  4  5  2  0
  5  6  1  0
  6  7  2  0
  6  8  1  0
  8  9  1  0
  9 10  2  0
 10 11  1  0
 10 12  1  0
 12 13  2  0
 13 14  1  0
 14 15  2  0
 15 16  1  0
  5 17  1  0
 17 18  2  0
 18 19  1  0
 19 20  2  0
 19 21  1  0
 18  2  1  0
 15  9  1  0
M  CHG  2  19   1  21  -1
M  END
>  <zinc_id>  (1) 
ZINC000002875050

>  <smiles>  (1) 
Cc1ccc(C(=O)Nc2c(C)cccc2C)cc1[N+](=O)[O-]

$$$$
