
     RDKit          3D

 21 22  0  0  0  0  0  0  0  0999 V2000
    6.5383    0.5105    1.5937 C   0  0  0  0  0  0  0  0  0  0  0  0
    5.1906    0.5073    0.9472 C   0  0  0  0  0  0  0  0  0  0  0  0
    5.0019    0.8061   -0.3844 C   0  0  0  0  0  0  0  0  0  0  0  0
    3.7159    0.7746   -0.8825 C   0  0  0  0  0  0  0  0  0  0  0  0
    2.6256    0.4577   -0.1010 C   0  0  0  0  0  0  0  0  0  0  0  0
    1.3022    0.4395   -0.6723 C   0  0  0  0  0  0  0  0  0  0  0  0
    1.1062    0.7110   -1.8821 O   0  0  0  0  0  0  0  0  0  0  0  0
    0.1986    0.1125    0.1309 N   0  0  0  0  0  0  0  0  0  0  0  0
   -1.1458    0.0750   -0.3711 C   0  0  0  0  0  0  0  0  0  0  0  0
   -1.3515    0.3763   -1.6997 C   0  0  0  0  0  0  0  0  0  0  0  0
   -2.6399    0.3446   -2.2000 C   0  0  0  0  0  0  0  0  0  0  0  0
   -3.6768    0.0114   -1.3484 C   0  0  0  0  0  0  0  0  0  0  0  0
   -4.9399   -0.0089   -1.8824 F   0  0  0  0  0  0  0  0  0  0  0  0
   -3.4857   -0.2931   -0.0142 C   0  0  0  0  0  0  0  0  0  0  0  0
   -4.5794   -0.6346    0.8412 N   0  0  0  0  0  4  0  0  0  0  0  0
   -4.3818   -1.3749    1.8362 O   0  0  0  0  0  0  0  0  0  0  0  0
   -5.8267   -0.1379    0.5461 O   0  0  0  0  0  1  0  0  0  0  0  0
   -2.1864   -0.2546    0.4636 C   0  0  0  0  0  0  0  0  0  0  0  0
    2.8008    0.1575    1.2297 C   0  0  0  0  0  0  0  0  0  0  0  0
    1.6426   -0.1945    2.1249 C   0  0  0  0  0  0  0  0  0  0  0  0
    4.0911    0.1903    1.7247 C   0  0  0  0  0  0  0  0  0  0  0  0
  1  2  1  0
  2  3  2  0
  3  4  1  0
  4  5  2  0
  5  6  1  0
  6  7  2  0
  6  8  1  0
  8  9  1  0
  9 10  2  0
 10 11  1  0
 11 12  2  0
 12 13  1  0
 12 14  1  0
 14 15  1  0
 15 16  2  0
 15 17  1  0
 14 18  2  0
  5 19  1  0
 19 20  1  0
 19 21  2  0
 21  2  1  0
 18  9  1  0
M  CHG  2  15   1  17  -1
M  END
>  <zinc_id>  (1) 
ZINC000000558005

>  <smiles>  (1) 
Cc1ccc(C(=O)Nc2ccc(F)c([N+](=O)[O-])c2)c(C)c1

$$$$
