
     RDKit          3D

 23 27  0  0  0  0  0  0  0  0999 V2000
    0.9793   -2.3863    0.0803 C   0  0  0  0  0  0  0  0  0  0  0  0
    0.8274   -0.7844    0.2347 C   0  0  1  0  0  0  0  0  0  0  0  0
    1.3576   -0.5176    1.4986 C   0  0  0  0  0  0  0  0  0  0  0  0
    2.5300   -0.0779    1.7411 C   0  0  0  0  0  0  0  0  0  0  0  0
    3.3716    0.1875    0.5856 C   0  0  0  0  0  0  0  0  0  0  0  0
    4.6392    0.5923    0.5332 O   0  0  0  0  0  0  0  0  0  0  0  0
    5.0281    0.6787   -0.7063 C   0  0  0  0  0  0  0  0  0  0  0  0
    3.9641    0.3160   -1.5115 C   0  0  0  0  0  0  0  0  0  0  0  0
    2.9190    0.0133   -0.6293 C   0  0  0  0  0  0  0  0  0  0  0  0
    1.4317   -0.2662   -1.0742 C   0  0  2  0  0  0  0  0  0  0  0  0
    0.9905    1.2834   -1.0766 C   0  0  0  0  0  0  0  0  0  0  0  0
    0.1510    1.6233    0.0936 C   0  0  0  0  0  0  0  0  0  0  0  0
   -1.0618    0.8185   -0.0076 C   0  0  1  0  0  0  0  0  0  0  0  0
   -1.7068    1.1031   -1.2779 C   0  0  0  0  0  0  0  0  0  0  0  0
   -3.1204    0.3202   -1.2184 C   0  0  1  0  0  0  0  0  0  0  0  0
   -2.5367   -1.1776   -1.2098 C   0  0  0  0  0  0  0  0  0  0  0  0
   -1.0449   -1.2151   -1.2658 C   0  0  0  0  0  0  0  0  0  0  0  0
   -0.7718   -0.7225    0.2486 C   0  0  1  0  0  0  0  0  0  0  0  0
   -3.3726    0.4443    0.3700 C   0  0  1  0  0  0  0  0  0  0  0  0
   -4.4604    1.3402    0.5017 O   0  0  0  0  0  0  0  0  0  0  0  0
   -3.7988   -0.8572    0.9201 C   0  0  0  0  0  0  0  0  0  0  0  0
   -4.1350   -0.6905    2.2394 O   0  0  0  0  0  0  0  0  0  0  0  0
   -2.1806    1.0847    0.9304 C   0  0  0  0  0  0  0  0  0  0  0  0
  2  1  1  6
  2  3  1  0
  3  4  2  0
  4  5  1  0
  5  6  1  0
  6  7  1  0
  7  8  2  0
  8  9  1  0
  9 10  1  0
 10 11  1  1
 11 12  1  0
 13 12  1  1
 13 14  1  0
 14 15  1  0
 15 16  1  1
 16 17  1  0
 18 17  1  6
 15 19  1  0
 19 20  1  6
 19 21  1  0
 21 22  1  0
 19 23  1  0
 10  2  1  0
 18 13  1  0
 18  2  1  0
  9  5  2  0
 23 13  1  0
M  END
>  <zinc_id>  (1) 
ZINC000001319998

>  <smiles>  (1) 
C[C@@]12C=Cc3occc3[C@@H]1CC[C@@]13C[C@@H](CC[C@H]12)[C@@](O)(CO)C3

$$$$
