
     RDKit          3D

 23 25  0  0  0  0  0  0  0  0999 V2000
    0.6569   -0.2029    1.3032 C   0  0  0  0  0  0  0  0  0  0  0  0
    0.8045    1.2769    0.6864 C   0  0  1  0  0  0  0  0  0  0  0  0
    2.3183    1.5472    1.1743 C   0  0  0  0  0  0  0  0  0  0  0  0
    3.2872    0.9847    0.2063 C   0  0  0  0  0  0  0  0  0  0  0  0
    2.7848   -0.5757    0.3391 C   0  0  2  0  0  0  0  0  0  0  0  0
    4.0339   -1.2270   -0.4915 C   0  0  0  0  0  0  0  0  0  0  0  0
    5.3013   -0.9155    0.1750 C   0  0  0  0  0  0  0  0  0  0  0  0
    3.9173   -1.0219   -1.9193 C   0  0  0  0  0  0  0  0  0  0  0  0
    3.7532   -2.5953   -0.2281 O   0  0  0  0  0  0  0  0  0  0  0  0
    1.7155   -0.5446   -0.8843 C   0  0  0  0  0  0  0  0  0  0  0  0
    1.1091    0.9523   -0.9347 C   0  0  1  0  0  0  0  0  0  0  0  0
   -0.3421    0.5445   -1.3327 N   0  0  0  0  0  0  0  0  0  0  0  0
   -0.4911    0.0174   -2.6697 C   0  0  0  0  0  0  0  0  0  0  0  0
   -1.3917    0.7543   -0.4325 C   0  0  0  0  0  0  0  0  0  0  0  0
   -1.3204    1.7530    0.5000 N   0  0  0  0  0  0  0  0  0  0  0  0
   -2.3049    2.0282    1.3507 C   0  0  0  0  0  0  0  0  0  0  0  0
   -3.4372    1.3257    1.3347 N   0  0  0  0  0  0  0  0  0  0  0  0
   -3.5820    0.3460    0.4652 C   0  0  0  0  0  0  0  0  0  0  0  0
   -4.5890   -0.5021    0.2465 N   0  0  0  0  0  0  0  0  0  0  0  0
   -4.2721   -1.3387   -0.7468 C   0  0  0  0  0  0  0  0  0  0  0  0
   -2.9996   -1.0099   -1.1857 C   0  0  0  0  0  0  0  0  0  0  0  0
   -2.3675   -1.6378   -2.1494 F   0  0  0  0  0  0  0  0  0  0  0  0
   -2.5845    0.0414   -0.4215 C   0  0  0  0  0  0  0  0  0  0  0  0
  2  1  1  1
  2  3  1  0
  3  4  1  0
  4  5  1  0
  5  6  1  6
  6  7  1  0
  6  8  1  0
  6  9  1  0
  5 10  1  0
 10 11  1  0
 11 12  1  6
 12 13  1  0
 12 14  1  0
 14 15  2  0
 15 16  1  0
 16 17  2  0
 17 18  1  0
 18 19  1  0
 19 20  1  0
 20 21  2  0
 21 22  1  0
 21 23  1  0
 11  2  1  0
 23 14  1  0
 23 18  2  0
M  END
>  <zinc_id>  (1) 
ZINC000000024360

>  <smiles>  (1) 
C[C@H]1CC[C@H](C(C)(C)O)C[C@H]1N(C)c1ncnc2[nH]cc(F)c12

$$$$
