
     RDKit          3D

 20 21  0  0  0  0  0  0  0  0999 V2000
   -3.9820    3.7812   -0.3916 C   0  0  0  0  0  0  0  0  0  0  0  0
   -3.4670    2.7370    0.3941 O   0  0  0  0  0  0  0  0  0  0  0  0
   -2.4147    1.9070   -0.1935 C   0  0  0  0  0  0  0  0  0  0  0  0
   -2.0253    2.0756   -1.2527 O   0  0  0  0  0  0  0  0  0  0  0  0
   -1.9219    0.8200    0.7250 N   0  0  0  0  0  0  0  0  0  0  0  0
   -0.8183    0.0035   -0.0170 C   0  0  1  0  0  0  0  0  0  0  0  0
   -0.1559   -0.8026    1.2104 C   0  0  0  0  0  0  0  0  0  0  0  0
    1.0469   -1.2749    0.3656 C   0  0  0  0  0  0  0  0  0  0  0  0
    1.3812   -2.2704   -0.4196 C   0  0  0  0  0  0  0  0  0  0  0  0
    2.5936   -2.0222   -1.0157 N   0  0  0  0  0  0  0  0  0  0  0  0
    3.0667   -0.8104   -0.5919 C   0  0  0  0  0  0  0  0  0  0  0  0
    4.2008   -0.0710   -0.8540 C   0  0  0  0  0  0  0  0  0  0  0  0
    4.3464    1.1755   -0.2141 C   0  0  0  0  0  0  0  0  0  0  0  0
    3.3560    1.6354    0.6702 C   0  0  0  0  0  0  0  0  0  0  0  0
    2.2620    0.8814    0.9002 C   0  0  0  0  0  0  0  0  0  0  0  0
    2.1382   -0.3318    0.2610 C   0  0  0  0  0  0  0  0  0  0  0  0
   -1.9006   -1.1731   -0.4510 C   0  0  0  0  0  0  0  0  0  0  0  0
   -2.3118   -1.0745   -1.6309 O   0  0  0  0  0  0  0  0  0  0  0  0
   -2.2234   -2.0990    0.5106 O   0  0  0  0  0  0  0  0  0  0  0  0
   -3.1708   -3.0869    0.0744 C   0  0  0  0  0  0  0  0  0  0  0  0
  1  2  1  0
  2  3  1  0
  3  4  2  0
  3  5  1  0
  5  6  1  0
  6  7  1  1
  7  8  1  0
  8  9  2  0
  9 10  1  0
 10 11  1  0
 11 12  2  0
 12 13  1  0
 13 14  2  0
 14 15  1  0
 15 16  2  0
  6 17  1  0
 17 18  2  0
 17 19  1  0
 19 20  1  0
 16  8  1  0
 16 11  1  0
M  END
>  <zinc_id>  (1) 
ZINC000002545374

>  <smiles>  (1) 
COC(=O)N[C@@H](Cc1c[nH]c2ccccc12)C(=O)OC

$$$$
