
     RDKit          3D

 19 20  0  0  0  0  0  0  0  0999 V2000
   -3.6551   -3.3019    1.1726 C   0  0  0  0  0  0  0  0  0  0  0  0
   -4.2704   -2.1167    0.7142 O   0  0  0  0  0  0  0  0  0  0  0  0
   -3.4770   -0.9982    0.5142 C   0  0  0  0  0  0  0  0  0  0  0  0
   -4.1115    0.1529    0.0627 C   0  0  0  0  0  0  0  0  0  0  0  0
   -3.3656    1.2853   -0.1495 C   0  0  0  0  0  0  0  0  0  0  0  0
   -3.9619    2.4568   -0.6005 O   0  0  0  0  0  0  0  0  0  0  0  0
   -3.2650    3.6411   -0.8366 C   0  0  0  0  0  0  0  0  0  0  0  0
   -2.0462    1.2263    0.0914 N   0  0  0  0  0  0  0  0  0  0  0  0
   -1.4349    0.1156    0.5268 C   0  0  0  0  0  0  0  0  0  0  0  0
    0.0298    0.1682    0.7590 C   0  0  0  0  0  0  0  0  0  0  0  0
    0.8372   -0.3026   -0.7960 S   0  0  0  0  0  0  0  0  0  0  0  0
    2.6102   -0.2477   -0.5447 C   0  0  0  0  0  0  0  0  0  0  0  0
    3.4971   -0.5577   -1.5549 C   0  0  0  0  0  0  0  0  0  0  0  0
    4.8622   -0.5161   -1.3637 C   0  0  0  0  0  0  0  0  0  0  0  0
    5.4090   -0.1611   -0.1478 C   0  0  0  0  0  0  0  0  0  0  0  0
    6.8178   -0.1124    0.0692 N   0  0  0  0  0  0  0  0  0  0  0  0
    4.5187    0.1489    0.8624 C   0  0  0  0  0  0  0  0  0  0  0  0
    3.1531    0.1079    0.6731 C   0  0  0  0  0  0  0  0  0  0  0  0
   -2.1476   -0.9887    0.7363 N   0  0  0  0  0  0  0  0  0  0  0  0
  1  2  1  0
  2  3  1  0
  3  4  2  0
  4  5  1  0
  5  6  1  0
  6  7  1  0
  5  8  2  0
  8  9  1  0
  9 10  1  0
 10 11  1  0
 11 12  1  0
 12 13  2  0
 13 14  1  0
 14 15  2  0
 15 16  1  0
 15 17  1  0
 17 18  2  0
  9 19  2  0
 19  3  1  0
 18 12  1  0
M  END
>  <zinc_id>  (1) 
ZINC000001501442

>  <smiles>  (1) 
COc1cc(OC)nc(CSc2ccc(N)cc2)n1

$$$$
