
     RDKit          3D

 21 23  0  0  0  0  0  0  0  0999 V2000
    0.0705    1.8084    1.8164 O   0  0  0  0  0  0  0  0  0  0  0  0
    0.5571    0.9204    1.0342 C   0  0  0  0  0  0  0  0  0  0  0  0
    1.7843    0.9216    0.3484 N   0  0  0  0  0  0  0  0  0  0  0  0
    2.0669   -0.4263   -0.1025 C   0  0  0  0  0  0  0  0  0  0  0  0
    2.9158   -1.1892    0.8814 C   0  0  0  0  0  0  0  0  0  0  0  0
    4.2598   -1.4393    0.2395 C   0  0  0  0  0  0  0  0  0  0  0  0
    5.1008   -0.1919    0.1480 C   0  0  0  0  0  0  0  0  0  0  0  0
    4.2905    1.0151   -0.2864 C   0  0  0  0  0  0  0  0  0  0  0  0
    3.6400    0.7754   -1.6341 C   0  0  0  0  0  0  0  0  0  0  0  0
    2.6650   -0.3651   -1.4769 C   0  0  0  0  0  0  0  0  0  0  0  0
    0.6960   -1.0442   -0.1720 C   0  0  0  0  0  0  0  0  0  0  0  0
    0.4464   -2.0218   -0.8994 O   0  0  0  0  0  0  0  0  0  0  0  0
   -0.1093   -0.2854    0.7142 N   0  0  0  0  0  0  0  0  0  0  0  0
   -1.4115   -0.7284    1.1879 C   0  0  0  0  0  0  0  0  0  0  0  0
   -2.5115   -0.2865    0.3035 C   0  0  0  0  0  0  0  0  0  0  0  0
   -3.1130    0.9248    0.5532 C   0  0  0  0  0  0  0  0  0  0  0  0
   -4.1421    1.3952   -0.2310 C   0  0  0  0  0  0  0  0  0  0  0  0
   -4.6119    0.6645   -1.3039 C   0  0  0  0  0  0  0  0  0  0  0  0
   -5.6362    1.1258   -2.0897 F   0  0  0  0  0  0  0  0  0  0  0  0
   -3.9943   -0.5410   -1.5313 C   0  0  0  0  0  0  0  0  0  0  0  0
   -2.9632   -1.0320   -0.7605 C   0  0  0  0  0  0  0  0  0  0  0  0
  1  2  2  0
  2  3  1  0
  3  4  1  0
  4  5  1  0
  5  6  1  0
  6  7  1  0
  7  8  1  0
  8  9  1  0
  9 10  1  0
  4 11  1  0
 11 12  2  0
 11 13  1  0
 13 14  1  0
 14 15  1  0
 15 16  2  0
 16 17  1  0
 17 18  2  0
 18 19  1  0
 18 20  1  0
 20 21  2  0
 13  2  1  0
 21 15  1  0
 10  4  1  0
M  END
>  <zinc_id>  (1) 
ZINC000004469500

>  <smiles>  (1) 
O=C1NC2(CCCCCC2)C(=O)N1Cc1ccc(F)cc1

$$$$
