
     RDKit          3D

 21 22  0  0  0  0  0  0  0  0999 V2000
    4.9926    1.6733    1.4785 C   0  0  0  0  0  0  0  0  0  0  0  0
    3.6650    1.1049    1.1006 C   0  0  0  0  0  0  0  0  0  0  0  0
    2.5488    1.7689    1.5814 C   0  0  0  0  0  0  0  0  0  0  0  0
    1.3140    1.2561    1.2413 C   0  0  0  0  0  0  0  0  0  0  0  0
    1.2004    0.1291    0.4550 C   0  0  0  0  0  0  0  0  0  0  0  0
   -0.1514   -0.3640    0.1302 C   0  0  0  0  0  0  0  0  0  0  0  0
   -0.3338   -1.3792   -0.5733 O   0  0  0  0  0  0  0  0  0  0  0  0
   -1.3068    0.3078    0.6128 N   0  0  0  0  0  0  0  0  0  0  0  0
   -2.6157   -0.1574    0.3068 C   0  0  0  0  0  0  0  0  0  0  0  0
   -2.7807   -1.2820   -0.4725 C   0  0  0  0  0  0  0  0  0  0  0  0
   -4.0516   -1.7599   -0.7877 C   0  0  0  0  0  0  0  0  0  0  0  0
   -5.1796   -1.0988   -0.3135 C   0  0  0  0  0  0  0  0  0  0  0  0
   -5.0255    0.0160    0.4591 C   0  0  0  0  0  0  0  0  0  0  0  0
   -6.2483    0.6975    0.9488 C   0  0  0  0  0  0  0  0  0  0  0  0
   -3.7481    0.4793    0.7641 C   0  0  0  0  0  0  0  0  0  0  0  0
   -3.5868    1.6835    1.5989 C   0  0  0  0  0  0  0  0  0  0  0  0
    2.3259   -0.5150   -0.0120 C   0  0  0  0  0  0  0  0  0  0  0  0
    3.5751   -0.0258    0.3115 C   0  0  0  0  0  0  0  0  0  0  0  0
    4.7710   -0.6633   -0.1521 N   0  0  0  0  0  4  0  0  0  0  0  0
    4.6891   -1.8875   -0.3800 O   0  0  0  0  0  0  0  0  0  0  0  0
    5.9464    0.0167   -0.3403 O   0  0  0  0  0  1  0  0  0  0  0  0
  1  2  1  0
  2  3  2  0
  3  4  1  0
  4  5  2  0
  5  6  1  0
  6  7  2  0
  6  8  1  0
  8  9  1  0
  9 10  2  0
 10 11  1  0
 11 12  2  0
 12 13  1  0
 13 14  1  0
 13 15  2  0
 15 16  1  0
  5 17  1  0
 17 18  2  0
 18 19  1  0
 19 20  2  0
 19 21  1  0
 18  2  1  0
 15  9  1  0
M  CHG  2  19   1  21  -1
M  END
>  <zinc_id>  (1) 
ZINC000003482000

>  <smiles>  (1) 
Cc1ccc(C(=O)Nc2cccc(C)c2C)cc1[N+](=O)[O-]

$$$$
