
     RDKit          3D

 21 24  0  0  0  0  0  0  0  0999 V2000
   -5.0751    1.3499   -1.7108 C   0  0  0  0  0  0  0  0  0  0  0  0
   -3.9602    0.7551   -0.8793 C   0  0  0  0  0  0  0  0  0  0  0  0
   -4.1152    0.5963    0.4773 C   0  0  0  0  0  0  0  0  0  0  0  0
   -3.0917    0.0470    1.2611 C   0  0  0  0  0  0  0  0  0  0  0  0
   -1.9081   -0.3431    0.6739 C   0  0  0  0  0  0  0  0  0  0  0  0
   -0.7797   -0.9605    1.6043 C   0  0  1  0  0  0  0  0  0  0  0  0
   -0.4080   -2.1052    0.7327 N   0  0  0  0  0  0  0  0  0  0  0  0
    0.3944   -2.3292   -0.1278 C   0  0  0  0  0  0  0  0  0  0  0  0
    0.5974   -3.5363   -0.8688 N   0  0  0  0  0  0  0  0  0  0  0  0
    1.1910   -1.2738   -0.4003 O   0  0  0  0  0  0  0  0  0  0  0  0
    0.5421    0.1236   -0.3144 C   0  0  2  0  0  0  0  0  0  0  0  0
    1.9684    0.8454   -0.2055 C   0  0  0  0  0  0  0  0  0  0  0  0
    2.5324    1.7437   -1.0692 C   0  0  0  0  0  0  0  0  0  0  0  0
    3.7940    2.2191   -0.7620 C   0  0  0  0  0  0  0  0  0  0  0  0
    4.4276    1.7877    0.3707 C   0  0  0  0  0  0  0  0  0  0  0  0
    3.7970    0.8590    1.2263 C   0  0  0  0  0  0  0  0  0  0  0  0
    2.5482    0.3866    0.9252 C   0  0  0  0  0  0  0  0  0  0  0  0
    1.7280   -0.5707    1.6988 C   0  0  0  0  0  0  0  0  0  0  0  0
    0.3899    0.2180    1.3725 C   0  0  2  0  0  0  0  0  0  0  0  0
   -1.7915   -0.1752   -0.6418 C   0  0  0  0  0  0  0  0  0  0  0  0
   -2.7807    0.3628   -1.4424 C   0  0  0  0  0  0  0  0  0  0  0  0
  1  2  1  0
  2  3  2  0
  3  4  1  0
  4  5  2  0
  6  5  1  6
  6  7  1  0
  7  8  2  0
  8  9  1  0
  8 10  1  0
 11 10  1  1
 11 12  1  0
 12 13  2  0
 13 14  1  0
 14 15  2  0
 15 16  1  0
 16 17  2  0
 17 18  1  0
 19 18  1  1
  5 20  1  0
 20 21  2  0
 21  2  1  0
 19  6  1  0
 19 11  1  0
 17 12  1  0
M  END
>  <zinc_id>  (1) 
ZINC000003609924

>  <smiles>  (1) 
Cc1ccc([C@H]2N=C(N)O[C@@H]3c4ccccc4C[C@H]23)cc1

$$$$
