
     RDKit          3D

 20 22  0  0  0  0  0  0  0  0999 V2000
    6.4920   -0.8245    0.4537 C   0  0  0  0  0  0  0  0  0  0  0  0
    5.5598   -1.6421   -0.1831 O   0  0  0  0  0  0  0  0  0  0  0  0
    4.1920   -1.3529   -0.2239 C   0  0  0  0  0  0  0  0  0  0  0  0
    3.7783   -0.1969    0.4050 C   0  0  0  0  0  0  0  0  0  0  0  0
    2.4244    0.1289    0.3884 C   0  0  0  0  0  0  0  0  0  0  0  0
    1.4881   -0.6653   -0.2349 C   0  0  0  0  0  0  0  0  0  0  0  0
    0.0962   -0.3883   -0.2868 N   0  0  0  0  0  0  0  0  0  0  0  0
   -0.4674    0.7680    0.3187 C   0  0  0  0  0  0  0  0  0  0  0  0
    0.3434    1.5106    0.8914 O   0  0  0  0  0  0  0  0  0  0  0  0
   -1.9345    1.0588    0.2633 C   0  0  0  0  0  0  0  0  0  0  0  0
   -2.4018    2.1937    0.8711 C   0  0  0  0  0  0  0  0  0  0  0  0
   -1.6330    3.1947    1.5922 N   0  0  0  0  0  0  0  0  0  0  0  0
   -4.0753    2.1334    0.5727 S   0  0  0  0  0  0  0  0  0  0  0  0
   -4.1502    0.6806   -0.3108 C   0  0  0  0  0  0  0  0  0  0  0  0
   -2.8529    0.2698   -0.3540 C   0  0  0  0  0  0  0  0  0  0  0  0
   -2.8153   -1.0489   -1.1393 C   0  0  0  0  0  0  0  0  0  0  0  0
   -4.2191   -1.5586   -0.9385 C   0  0  0  0  0  0  0  0  0  0  0  0
   -5.0624   -0.2880   -1.0349 C   0  0  0  0  0  0  0  0  0  0  0  0
    1.9465   -1.8099   -0.8500 C   0  0  0  0  0  0  0  0  0  0  0  0
    3.2912   -2.1632   -0.8513 C   0  0  0  0  0  0  0  0  0  0  0  0
  1  2  1  0
  2  3  1  0
  3  4  2  0
  4  5  1  0
  5  6  2  0
  6  7  1  0
  7  8  1  0
  8  9  2  0
  8 10  1  0
 10 11  2  0
 11 12  1  0
 11 13  1  0
 13 14  1  0
 14 15  2  0
 15 16  1  0
 16 17  1  0
 17 18  1  0
  6 19  1  0
 19 20  2  0
 20  3  1  0
 15 10  1  0
 18 14  1  0
M  END
>  <zinc_id>  (1) 
ZINC000000071531

>  <smiles>  (1) 
COc1ccc(NC(=O)c2c(N)sc3c2CCC3)cc1

$$$$
