
     RDKit          3D

 19 20  0  0  0  0  0  0  0  0999 V2000
   -4.0042   -2.5153   -1.8353 C   0  0  0  0  0  0  0  0  0  0  0  0
   -3.0055   -1.6120   -1.1477 C   0  0  0  0  0  0  0  0  0  0  0  0
   -1.3228   -1.6810   -1.1444 S   0  0  0  0  0  0  0  0  0  0  0  0
   -0.9707   -0.2935   -0.1257 C   0  0  0  0  0  0  0  0  0  0  0  0
    0.3505   -0.0789    0.0721 N   0  0  0  0  0  0  0  0  0  0  0  0
    1.3404    0.6052    0.6004 C   0  0  0  0  0  0  0  0  0  0  0  0
    1.0702    1.5930    1.3093 O   0  0  0  0  0  0  0  0  0  0  0  0
    2.7558    0.2216    0.3666 C   0  0  0  0  0  0  0  0  0  0  0  0
    3.1315   -0.8418   -0.3933 C   0  0  0  0  0  0  0  0  0  0  0  0
    4.4493   -1.1774   -0.5953 C   0  0  0  0  0  0  0  0  0  0  0  0
    5.4578   -0.4154   -0.0106 C   0  0  0  0  0  0  0  0  0  0  0  0
    5.0591    0.6573    0.7552 C   0  0  0  0  0  0  0  0  0  0  0  0
    3.7340    0.9840    0.9506 C   0  0  0  0  0  0  0  0  0  0  0  0
   -2.2156    0.1525    0.1586 C   0  0  0  0  0  0  0  0  0  0  0  0
   -2.4636    1.3352    1.0094 C   0  0  0  0  0  0  0  0  0  0  0  0
   -3.7912    1.7742    1.2862 N   0  0  0  0  0  0  0  0  0  0  0  0
   -1.5560    1.9821    1.5079 O   0  0  0  0  0  0  0  0  0  0  0  0
   -3.2699   -0.5283   -0.3692 C   0  0  0  0  0  0  0  0  0  0  0  0
   -4.7491   -0.1615   -0.1498 C   0  0  0  0  0  0  0  0  0  0  0  0
  1  2  1  0
  2  3  1  0
  3  4  1  0
  4  5  1  0
  5  6  1  0
  6  7  2  0
  6  8  1  0
  8  9  2  0
  9 10  1  0
 10 11  2  0
 11 12  1  0
 12 13  2  0
  4 14  2  0
 14 15  1  0
 15 16  1  0
 15 17  2  0
 14 18  1  0
 18 19  1  0
 18  2  2  0
 13  8  1  0
M  END
>  <zinc_id>  (1) 
ZINC000000038744

>  <smiles>  (1) 
Cc1sc(NC(=O)c2ccccc2)c(C(N)=O)c1C

$$$$
