
     RDKit          3D

 20 22  0  0  0  0  0  0  0  0999 V2000
   -4.6468    2.1463    0.1902 C   0  0  0  0  0  0  0  0  0  0  0  0
   -3.2367    1.6992    0.1425 C   0  0  0  0  0  0  0  0  0  0  0  0
   -2.3163    2.4925   -0.1553 O   0  0  0  0  0  0  0  0  0  0  0  0
   -2.8671    0.3560    0.4312 N   0  0  0  0  0  0  0  0  0  0  0  0
   -1.5249   -0.1014    0.3936 C   0  0  0  0  0  0  0  0  0  0  0  0
   -0.4475    0.6935    0.0779 C   0  0  0  0  0  0  0  0  0  0  0  0
    0.8349    0.1859    0.0594 C   0  0  0  0  0  0  0  0  0  0  0  0
    1.0732   -1.1386    0.3581 C   0  0  0  0  0  0  0  0  0  0  0  0
   -0.0066   -1.9324    0.6738 C   0  0  0  0  0  0  0  0  0  0  0  0
   -1.2866   -1.4235    0.6918 C   0  0  0  0  0  0  0  0  0  0  0  0
   -2.3598   -2.2950    1.0258 N   0  0  0  0  0  0  0  0  0  0  0  0
   -3.1693   -1.9774    2.1751 C   0  0  0  0  0  0  0  0  0  0  0  0
   -2.6465   -3.4668    0.2509 C   0  0  0  0  0  0  0  0  0  0  0  0
    2.3864   -1.4181    0.2801 N   0  0  0  0  0  0  0  0  0  0  0  0
    2.9962   -0.2612   -0.0723 C   0  0  0  0  0  0  0  0  0  0  0  0
    4.3158    0.0455   -0.2951 C   0  0  0  0  0  0  0  0  0  0  0  0
    4.6869    1.3227   -0.6504 C   0  0  0  0  0  0  0  0  0  0  0  0
    3.7474    2.3062   -0.7870 C   0  0  0  0  0  0  0  0  0  0  0  0
    2.4052    2.0270   -0.5684 C   0  0  0  0  0  0  0  0  0  0  0  0
    2.0621    0.7394   -0.2138 C   0  0  0  0  0  0  0  0  0  0  0  0
  1  2  1  0
  2  3  2  0
  2  4  1  0
  4  5  1  0
  5  6  2  0
  6  7  1  0
  7  8  2  0
  8  9  1  0
  9 10  2  0
 10 11  1  0
 11 12  1  0
 11 13  1  0
  8 14  1  0
 14 15  1  0
 15 16  2  0
 16 17  1  0
 17 18  2  0
 18 19  1  0
 19 20  2  0
 10  5  1  0
 20 15  1  0
 20  7  1  0
M  END
>  <zinc_id>  (1) 
ZINC000002022163

>  <smiles>  (1) 
CC(=O)Nc1cc2c(cc1N(C)C)[nH]c1ccccc12

$$$$
