
     RDKit          3D

 22 24  0  0  0  0  0  0  0  0999 V2000
   -6.3309    0.3764   -0.5506 C   0  0  0  0  0  0  0  0  0  0  0  0
   -4.8397    0.3376   -0.6822 C   0  0  0  0  0  0  0  0  0  0  0  0
   -4.1432    1.4809   -0.4049 C   0  0  0  0  0  0  0  0  0  0  0  0
   -2.7689    1.5236   -0.5033 C   0  0  0  0  0  0  0  0  0  0  0  0
   -2.1286    0.3805   -0.8885 C   0  0  0  0  0  0  0  0  0  0  0  0
   -0.6501    0.3475   -1.0174 C   0  0  0  0  0  0  0  0  0  0  0  0
   -0.0799   -0.0581    0.2979 N   0  0  0  0  0  0  0  0  0  0  0  0
    0.2983    0.7472    1.3559 C   0  0  0  0  0  0  0  0  0  0  0  0
    0.2133    2.0285    1.3679 O   0  0  0  0  0  0  0  0  0  0  0  0
    0.7754   -0.0565    2.3800 N   0  0  0  0  0  0  0  0  0  0  0  0
    1.2882   -1.3943    1.7506 C   0  0  2  0  0  0  0  0  0  0  0  0
    2.3986   -0.7502    0.8519 C   0  0  0  0  0  0  0  0  0  0  0  0
    3.2003    0.1839    1.4338 C   0  0  0  0  0  0  0  0  0  0  0  0
    4.1939    0.7443    0.6448 C   0  0  0  0  0  0  0  0  0  0  0  0
    4.3466    0.3590   -0.6693 C   0  0  0  0  0  0  0  0  0  0  0  0
    5.3124    0.9022   -1.4400 F   0  0  0  0  0  0  0  0  0  0  0  0
    3.5269   -0.5974   -1.2686 C   0  0  0  0  0  0  0  0  0  0  0  0
    2.5461   -1.1343   -0.4481 C   0  0  0  0  0  0  0  0  0  0  0  0
    0.1351   -1.3770    0.5933 C   0  0  0  0  0  0  0  0  0  0  0  0
   -0.3198   -2.4616    0.2029 O   0  0  0  0  0  0  0  0  0  0  0  0
   -2.7997   -0.7952   -1.1774 C   0  0  0  0  0  0  0  0  0  0  0  0
   -4.1743   -0.7868   -1.0640 C   0  0  0  0  0  0  0  0  0  0  0  0
  1  2  1  0
  2  3  2  0
  3  4  1  0
  4  5  2  0
  5  6  1  0
  6  7  1  0
  7  8  1  0
  8  9  2  0
  8 10  1  0
 10 11  1  0
 11 12  1  6
 12 13  2  0
 13 14  1  0
 14 15  2  0
 15 16  1  0
 15 17  1  0
 17 18  2  0
 11 19  1  0
 19 20  2  0
  5 21  1  0
 21 22  2  0
 22  2  1  0
 19  7  1  0
 18 12  1  0
M  END
>  <zinc_id>  (1) 
ZINC000002645085

>  <smiles>  (1) 
Cc1ccc(CN2C(=O)N[C@H](c3ccc(F)cc3)C2=O)cc1

$$$$
