
     RDKit          3D

 21 24  0  0  0  0  0  0  0  0999 V2000
   -5.8181    0.9493    1.7061 C   0  0  0  0  0  0  0  0  0  0  0  0
   -4.9976    0.0685    0.8556 C   0  0  0  0  0  0  0  0  0  0  0  0
   -5.2936   -1.2882    0.8301 C   0  0  0  0  0  0  0  0  0  0  0  0
   -4.5425   -2.1340    0.0437 C   0  0  0  0  0  0  0  0  0  0  0  0
   -3.4966   -1.6278   -0.7171 C   0  0  0  0  0  0  0  0  0  0  0  0
   -3.1905   -0.2864   -0.7029 C   0  0  0  0  0  0  0  0  0  0  0  0
   -2.1545    0.1741   -1.4646 O   0  0  0  0  0  0  0  0  0  0  0  0
   -0.8386    0.2744   -1.0538 C   0  0  0  0  0  0  0  0  0  0  0  0
   -0.4392    1.4527   -0.4655 C   0  0  0  0  0  0  0  0  0  0  0  0
    0.8617    1.6036   -0.0384 C   0  0  0  0  0  0  0  0  0  0  0  0
    1.7912    0.5750   -0.1923 C   0  0  0  0  0  0  0  0  0  0  0  0
    1.3928   -0.6047   -0.7808 C   0  0  0  0  0  0  0  0  0  0  0  0
    0.0712   -0.7445   -1.2093 C   0  0  0  0  0  0  0  0  0  0  0  0
    2.5284   -1.5632   -0.8483 C   0  0  0  0  0  0  0  0  0  0  0  0
    3.6535   -0.7784   -0.2148 C   0  0  0  0  0  0  0  0  0  0  0  0
    5.2947   -0.7426    0.2616 S   0  0  0  0  0  0  0  0  0  0  0  0
    5.3496    0.8301    0.9122 C   0  0  0  0  0  0  0  0  0  0  0  0
    6.4237    1.5821    1.5181 N   0  0  0  0  0  0  0  0  0  0  0  0
    4.1184    1.2524    0.7362 N   0  0  0  0  0  0  0  0  0  0  0  0
    3.2346    0.4619    0.1683 C   0  0  0  0  0  0  0  0  0  0  0  0
   -3.9486    0.5457    0.0865 C   0  0  0  0  0  0  0  0  0  0  0  0
  1  2  1  0
  2  3  2  0
  3  4  1  0
  4  5  2  0
  5  6  1  0
  6  7  1  0
  7  8  1  0
  8  9  2  0
  9 10  1  0
 10 11  2  0
 11 12  1  0
 12 13  2  0
 12 14  1  0
 14 15  1  0
 15 16  1  0
 16 17  1  0
 17 18  1  0
 17 19  2  0
 19 20  1  0
  6 21  2  0
 21  2  1  0
 13  8  1  0
 20 15  2  0
 20 11  1  0
M  END
>  <zinc_id>  (1) 
ZINC000000026164

>  <smiles>  (1) 
Cc1cccc(Oc2ccc3c(c2)Cc2sc(N)nc2-3)c1

$$$$
