
     RDKit          3D

 19 20  0  0  0  0  0  0  0  0999 V2000
   -2.5577    2.8926   -1.4517 C   0  0  0  0  0  0  0  0  0  0  0  0
   -2.5346    2.0772   -0.1218 C   0  0  0  0  0  0  0  0  0  0  0  0
   -1.7174    3.1081    0.8565 C   0  0  0  0  0  0  0  0  0  0  0  0
   -1.5979    0.9048   -0.1868 C   0  0  0  0  0  0  0  0  0  0  0  0
   -0.2637    1.0360   -0.2822 C   0  0  0  0  0  0  0  0  0  0  0  0
    0.5623   -0.0665   -0.1133 C   0  0  0  0  0  0  0  0  0  0  0  0
    2.0757    0.0600   -0.1211 C   0  0  0  0  0  0  0  0  0  0  0  0
    2.8490   -1.0765    0.2059 C   0  0  0  0  0  0  0  0  0  0  0  0
    4.4178   -0.4249    0.2593 S   0  0  0  0  0  0  0  0  0  0  0  0
    4.0250    1.1936   -0.1175 C   0  0  0  0  0  0  0  0  0  0  0  0
    4.8117    2.2366   -0.2449 O   0  0  0  0  0  0  0  0  0  0  0  0
    2.6861    1.1713   -0.2705 N   0  0  0  0  0  0  0  0  0  0  0  0
   -0.0196   -1.2952    0.1287 C   0  0  0  0  0  0  0  0  0  0  0  0
   -1.4054   -1.4201    0.2101 C   0  0  0  0  0  0  0  0  0  0  0  0
   -1.9922   -2.7827    0.4171 C   0  0  0  0  0  0  0  0  0  0  0  0
   -0.9730   -3.8902    0.1759 C   0  0  0  0  0  0  0  0  0  0  0  0
   -2.6506   -2.9211    1.7533 C   0  0  0  0  0  0  0  0  0  0  0  0
   -2.1520   -0.3363    0.0624 C   0  0  0  0  0  0  0  0  0  0  0  0
   -3.5636   -0.4665    0.1703 O   0  0  0  0  0  0  0  0  0  0  0  0
  1  2  1  0
  2  3  1  0
  2  4  1  0
  4  5  2  0
  5  6  1  0
  6  7  1  0
  7  8  2  0
  8  9  1  0
  9 10  1  0
 10 11  2  0
 10 12  1  0
  6 13  2  0
 13 14  1  0
 14 15  1  0
 15 16  1  0
 15 17  1  0
 14 18  2  0
 18 19  1  0
 18  4  1  0
 12  7  1  0
M  END
>  <zinc_id>  (1) 
ZINC000000009379

>  <smiles>  (1) 
CC(C)c1cc(-c2csc(=O)[nH]2)cc(C(C)C)c1O

$$$$
