
     RDKit          3D

 20 21  0  0  0  0  0  0  0  0999 V2000
    4.7133    0.9682    0.2790 C   0  0  0  0  0  0  0  0  0  0  0  0
    3.6667    1.6872   -0.5428 C   0  0  0  0  0  0  0  0  0  0  0  0
    2.3489    1.3036   -0.2017 O   0  0  0  0  0  0  0  0  0  0  0  0
    1.9083    0.0101   -0.3103 C   0  0  0  0  0  0  0  0  0  0  0  0
    2.8057   -0.9682   -0.7794 C   0  0  0  0  0  0  0  0  0  0  0  0
    2.4026   -2.2605   -0.8996 C   0  0  0  0  0  0  0  0  0  0  0  0
    1.1278   -2.6184   -0.5671 C   0  0  0  0  0  0  0  0  0  0  0  0
    0.2657   -1.6509   -0.1112 C   0  0  0  0  0  0  0  0  0  0  0  0
    0.6418   -0.4118    0.0073 C   0  0  0  0  0  0  0  0  0  0  0  0
   -0.2730    0.8053    0.5275 C   0  0  2  0  0  0  0  0  0  0  0  0
   -0.5221    0.4785    1.9477 N   0  0  0  0  0  0  0  0  0  0  0  0
   -1.7180    0.0059    2.4712 C   0  0  0  0  0  0  0  0  0  0  0  0
   -1.8140   -0.2430    3.7247 O   0  0  0  0  0  0  0  0  0  0  0  0
   -2.8263   -0.1969    1.6062 N   0  0  0  0  0  0  0  0  0  0  0  0
   -2.6552    0.0965    0.2346 C   0  0  0  0  0  0  0  0  0  0  0  0
   -3.8785   -0.1323   -0.6918 C   0  0  0  0  0  0  0  0  0  0  0  0
   -1.5653    0.5300   -0.2588 C   0  0  0  0  0  0  0  0  0  0  0  0
   -1.5000    0.8033   -1.7088 C   0  0  0  0  0  0  0  0  0  0  0  0
   -2.6586    0.5640   -2.4565 N   0  0  0  0  0  0  0  0  0  0  0  0
   -0.4697    1.2297   -2.2702 O   0  0  0  0  0  0  0  0  0  0  0  0
  1  2  1  0
  2  3  1  0
  3  4  1  0
  4  5  2  0
  5  6  1  0
  6  7  2  0
  7  8  1  0
  8  9  2  0
 10  9  1  6
 10 11  1  0
 11 12  1  0
 12 13  2  0
 12 14  1  0
 14 15  1  0
 15 16  1  0
 15 17  2  0
 17 18  1  0
 18 19  1  0
 18 20  2  0
  9  4  1  0
 17 10  1  0
M  END
>  <zinc_id>  (1) 
ZINC000000071730

>  <smiles>  (1) 
CCOc1ccccc1[C@@H]1NC(=O)NC(C)=C1C(N)=O

$$$$
