
     RDKit          3D

 20 21  0  0  0  0  0  0  0  0999 V2000
    6.8289   -0.5047   -0.2615 C   0  0  0  0  0  0  0  0  0  0  0  0
    5.7853    0.4136   -0.0002 O   0  0  0  0  0  0  0  0  0  0  0  0
    4.4449    0.0539   -0.1078 C   0  0  0  0  0  0  0  0  0  0  0  0
    4.0532   -1.2125   -0.4736 C   0  0  0  0  0  0  0  0  0  0  0  0
    2.7011   -1.5195   -0.5660 C   0  0  0  0  0  0  0  0  0  0  0  0
    1.7203   -0.5941   -0.3025 C   0  0  0  0  0  0  0  0  0  0  0  0
    0.3511   -0.9088   -0.3972 N   0  0  0  0  0  0  0  0  0  0  0  0
   -0.6210    0.0951   -0.1109 C   0  0  0  0  0  0  0  0  0  0  0  0
   -2.0153   -0.3722   -0.2497 C   0  0  0  0  0  0  0  0  0  0  0  0
   -2.3745   -1.6328   -0.6139 C   0  0  0  0  0  0  0  0  0  0  0  0
   -3.7164   -1.9610   -0.7125 C   0  0  0  0  0  0  0  0  0  0  0  0
   -4.7113   -1.0172   -0.4437 C   0  0  0  0  0  0  0  0  0  0  0  0
   -4.3440    0.2649   -0.0732 C   0  0  0  0  0  0  0  0  0  0  0  0
   -5.3128    1.2455    0.2063 O   0  0  0  0  0  0  0  0  0  0  0  0
   -6.6938    0.9603    0.1200 C   0  0  0  0  0  0  0  0  0  0  0  0
   -3.0112    0.5620    0.0164 C   0  0  0  0  0  0  0  0  0  0  0  0
   -2.6771    1.8694    0.3940 O   0  0  0  0  0  0  0  0  0  0  0  0
    2.1343    0.6651    0.0613 C   0  0  0  0  0  0  0  0  0  0  0  0
    3.4804    0.9930    0.1597 C   0  0  0  0  0  0  0  0  0  0  0  0
    3.9780    2.6001    0.6239 Cl  0  0  0  0  0  0  0  0  0  0  0  0
  1  2  1  0
  2  3  1  0
  3  4  2  0
  4  5  1  0
  5  6  2  0
  6  7  1  0
  7  8  1  0
  8  9  1  0
  9 10  2  0
 10 11  1  0
 11 12  2  0
 12 13  1  0
 13 14  1  0
 14 15  1  0
 13 16  2  0
 16 17  1  0
  6 18  1  0
 18 19  2  0
 19 20  1  0
 19  3  1  0
 16  9  1  0
M  END
>  <zinc_id>  (1) 
ZINC000000257145

>  <smiles>  (1) 
COc1ccc(NCc2cccc(OC)c2O)cc1Cl

$$$$
