
     RDKit          3D

 19 20  0  0  0  0  0  0  0  0999 V2000
   -1.0000    3.5299   -0.8020 C   0  0  0  0  0  0  0  0  0  0  0  0
   -1.4397    2.1074   -0.6222 C   0  0  0  0  0  0  0  0  0  0  0  0
   -2.7354    1.7093   -0.7713 C   0  0  0  0  0  0  0  0  0  0  0  0
   -3.0470    0.3946   -0.5890 C   0  0  0  0  0  0  0  0  0  0  0  0
   -4.4482   -0.0849   -0.7416 C   0  0  0  0  0  0  0  0  0  0  0  0
   -2.0600   -0.5077   -0.2596 C   0  0  0  0  0  0  0  0  0  0  0  0
   -2.4082   -1.9077   -0.0682 C   0  0  0  0  0  0  0  0  0  0  0  0
   -3.7408   -2.3562   -0.2146 N   0  0  0  0  0  0  0  0  0  0  0  0
   -1.5223   -2.7546    0.2341 O   0  0  0  0  0  0  0  0  0  0  0  0
   -0.7540   -0.0928   -0.1117 C   0  0  0  0  0  0  0  0  0  0  0  0
    0.2744   -1.0126    0.2279 N   0  0  0  0  0  0  0  0  0  0  0  0
    1.6261   -0.5803    0.3805 C   0  0  0  0  0  0  0  0  0  0  0  0
    2.6179   -1.4807    0.7105 C   0  0  0  0  0  0  0  0  0  0  0  0
    3.9429   -1.0564    0.8599 C   0  0  0  0  0  0  0  0  0  0  0  0
    4.3009    0.2547    0.6861 C   0  0  0  0  0  0  0  0  0  0  0  0
    5.5629    0.7319    0.8154 F   0  0  0  0  0  0  0  0  0  0  0  0
    3.3132    1.1565    0.3566 C   0  0  0  0  0  0  0  0  0  0  0  0
    1.9958    0.7379    0.2074 C   0  0  0  0  0  0  0  0  0  0  0  0
   -0.4787    1.2115   -0.2983 N   0  0  0  0  0  0  0  0  0  0  0  0
  1  2  1  0
  2  3  2  0
  3  4  1  0
  4  5  1  0
  4  6  2  0
  6  7  1  0
  7  8  1  0
  7  9  2  0
  6 10  1  0
 10 11  1  0
 11 12  1  0
 12 13  2  0
 13 14  1  0
 14 15  2  0
 15 16  1  0
 15 17  1  0
 17 18  2  0
 10 19  2  0
 19  2  1  0
 18 12  1  0
M  END
>  <zinc_id>  (1) 
ZINC000000054550

>  <smiles>  (1) 
Cc1cc(C)c(C(N)=O)c(Nc2ccc(F)cc2)n1

$$$$
