
     RDKit          3D

 21 23  0  0  0  0  0  0  0  0999 V2000
   -4.9457    2.0043   -0.0922 C   0  0  0  0  0  0  0  0  0  0  0  0
   -4.8511    0.5852   -0.0888 O   0  0  0  0  0  0  0  0  0  0  0  0
   -3.5929   -0.0571   -0.0811 C   0  0  0  0  0  0  0  0  0  0  0  0
   -2.4390    0.6657   -0.0768 C   0  0  0  0  0  0  0  0  0  0  0  0
   -1.1995    0.0173   -0.0692 C   0  0  0  0  0  0  0  0  0  0  0  0
    0.0017    0.6065   -0.0643 C   0  0  0  0  0  0  0  0  0  0  0  0
    1.1092   -0.1493   -0.0572 C   0  0  0  0  0  0  0  0  0  0  0  0
    2.5257    0.1284   -0.0506 C   0  0  0  0  0  0  0  0  0  0  0  0
    3.3742   -0.7688   -0.0444 N   0  0  0  0  0  0  0  0  0  0  0  0
    4.7737   -0.5955   -0.0381 N   0  0  0  0  0  0  0  0  0  0  0  0
    5.1242    0.8006   -0.0405 C   0  0  0  0  0  0  0  0  0  0  0  0
    6.1160    1.2104    0.6135 O   0  0  0  0  0  0  0  0  0  0  0  0
    4.2240    1.6249   -0.8582 C   0  0  0  0  0  0  0  0  0  0  0  0
    2.8386    1.6596   -0.0473 C   0  0  2  0  0  0  0  0  0  0  0  0
    3.5006    1.7044    1.4324 C   0  0  0  0  0  0  0  0  0  0  0  0
    0.4239   -1.7415   -0.0574 S   0  0  0  0  0  0  0  0  0  0  0  0
   -1.2342   -1.3480   -0.0666 C   0  0  0  0  0  0  0  0  0  0  0  0
   -2.4031   -2.0779   -0.0710 C   0  0  0  0  0  0  0  0  0  0  0  0
   -3.6471   -1.4349   -0.0786 C   0  0  0  0  0  0  0  0  0  0  0  0
   -4.8532   -2.1083   -0.0833 O   0  0  0  0  0  0  0  0  0  0  0  0
   -4.8461   -3.5239   -0.0803 C   0  0  0  0  0  0  0  0  0  0  0  0
  1  2  1  0
  2  3  1  0
  3  4  2  0
  4  5  1  0
  5  6  1  0
  6  7  2  0
  7  8  1  0
  8  9  2  0
  9 10  1  0
 10 11  1  0
 11 12  2  0
 11 13  1  0
 13 14  1  0
 14 15  1  1
  7 16  1  0
 16 17  1  0
 17 18  1  0
 18 19  2  0
 19 20  1  0
 20 21  1  0
 19  3  1  0
 17  5  2  0
 14  8  1  0
M  END
>  <zinc_id>  (1) 
ZINC000000004404

>  <smiles>  (1) 
COc1cc2cc(C3=NNC(=O)C[C@@H]3C)sc2cc1OC

$$$$
