
     RDKit          3D

 21 23  0  0  0  0  0  0  0  0999 V2000
   -5.6519    1.9401   -2.3717 C   0  0  0  0  0  0  0  0  0  0  0  0
   -5.4475    1.7529   -0.9842 O   0  0  0  0  0  0  0  0  0  0  0  0
   -4.4091    0.9628   -0.4863 C   0  0  0  0  0  0  0  0  0  0  0  0
   -4.2510    0.8111    0.8708 C   0  0  0  0  0  0  0  0  0  0  0  0
   -3.2231    0.0288    1.3671 C   0  0  0  0  0  0  0  0  0  0  0  0
   -2.3277   -0.6223    0.5600 C   0  0  0  0  0  0  0  0  0  0  0  0
   -1.2728   -1.4276    1.1701 C   0  0  0  0  0  0  0  0  0  0  0  0
   -0.0001   -0.4007    1.3865 C   0  0  1  0  0  0  0  0  0  0  0  0
    0.9475   -1.5285    2.0397 C   0  0  0  0  0  0  0  0  0  0  0  0
    1.5813   -2.3703    0.9699 C   0  0  0  0  0  0  0  0  0  0  0  0
    2.5647   -1.4497    0.3438 C   0  0  0  0  0  0  0  0  0  0  0  0
    3.8668   -1.5081    0.3122 N   0  0  0  0  0  0  0  0  0  0  0  0
    4.5808   -0.5341   -0.3254 C   0  0  0  0  0  0  0  0  0  0  0  0
    4.0119    0.5465   -0.9620 C   0  0  0  0  0  0  0  0  0  0  0  0
    4.8357    1.5862   -1.6457 C   0  0  0  0  0  0  0  0  0  0  0  0
    5.1716    2.6212   -0.7668 O   0  0  0  0  0  0  0  0  0  0  0  0
    2.6321    0.6094   -0.9292 C   0  0  0  0  0  0  0  0  0  0  0  0
    1.9190   -0.3793   -0.2828 C   0  0  0  0  0  0  0  0  0  0  0  0
    0.4621   -0.4733   -0.1570 C   0  0  0  0  0  0  0  0  0  0  0  0
   -2.4783   -0.4761   -0.8022 C   0  0  0  0  0  0  0  0  0  0  0  0
   -3.5122    0.3109   -1.3062 C   0  0  0  0  0  0  0  0  0  0  0  0
  1  2  1  0
  2  3  1  0
  3  4  2  0
  4  5  1  0
  5  6  2  0
  6  7  1  0
  8  7  1  6
  8  9  1  0
  9 10  1  0
 10 11  1  0
 11 12  2  0
 12 13  1  0
 13 14  2  0
 14 15  1  0
 15 16  1  0
 14 17  1  0
 17 18  2  0
 18 19  1  0
  6 20  1  0
 20 21  2  0
 21  3  1  0
 19  8  1  0
 18 11  1  0
M  END
>  <zinc_id>  (1) 
ZINC000000020337

>  <smiles>  (1) 
COc1ccc(C[C@H]2CCc3ncc(CO)cc3C2)cc1

$$$$
