
     RDKit          3D

 19 20  0  0  0  0  0  0  0  0999 V2000
   -3.7010    0.6193    2.3888 C   0  0  0  0  0  0  0  0  0  0  0  0
   -2.6330    0.4088    1.3303 C   0  0  0  0  0  0  0  0  0  0  0  0
   -1.3818    0.2935    1.6302 N   0  0  0  0  0  0  0  0  0  0  0  0
   -0.4869    0.1118    0.6816 C   0  0  0  0  0  0  0  0  0  0  0  0
    0.9501   -0.0396    0.8026 N   0  0  0  0  0  0  0  0  0  0  0  0
    1.7423   -0.2282   -0.3639 C   0  0  0  0  0  0  0  0  0  0  0  0
    1.1269   -0.2524   -1.4601 O   0  0  0  0  0  0  0  0  0  0  0  0
    3.2005   -0.3869   -0.2986 C   0  0  0  0  0  0  0  0  0  0  0  0
    3.8864   -0.3623    0.8971 C   0  0  0  0  0  0  0  0  0  0  0  0
    5.2563   -0.5081    0.9963 C   0  0  0  0  0  0  0  0  0  0  0  0
    6.0008   -0.6896   -0.1512 C   0  0  0  0  0  0  0  0  0  0  0  0
    5.3256   -0.7170   -1.3662 C   0  0  0  0  0  0  0  0  0  0  0  0
    3.9549   -0.5688   -1.4381 C   0  0  0  0  0  0  0  0  0  0  0  0
   -1.4594    0.1008   -0.7315 S   0  0  0  0  0  0  0  0  0  0  0  0
   -2.9844    0.3356    0.0080 C   0  0  0  0  0  0  0  0  0  0  0  0
   -4.3476    0.4373   -0.5996 C   0  0  0  0  0  0  0  0  0  0  0  0
   -5.1881   -0.6719   -0.0299 C   0  0  0  0  0  0  0  0  0  0  0  0
   -5.0101    1.7586   -0.1892 C   0  0  0  0  0  0  0  0  0  0  0  0
   -4.2512    0.3593   -2.1065 C   0  0  0  0  0  0  0  0  0  0  0  0
  1  2  1  0
  2  3  1  0
  3  4  2  0
  4  5  1  0
  5  6  1  0
  6  7  2  0
  6  8  1  0
  8  9  2  0
  9 10  1  0
 10 11  2  0
 11 12  1  0
 12 13  2  0
  4 14  1  0
 14 15  1  0
 15 16  1  0
 16 17  1  0
 16 18  1  0
 16 19  1  0
 15  2  2  0
 13  8  1  0
M  END
>  <zinc_id>  (1) 
ZINC000003102059

>  <smiles>  (1) 
Cc1nc(NC(=O)c2ccccc2)sc1C(C)(C)C

$$$$
