
     RDKit          3D

 21 22  0  0  0  0  0  0  0  0999 V2000
    6.2815   -0.6169    0.8473 C   0  0  0  0  0  0  0  0  0  0  0  0
    5.1577   -0.2772   -0.1363 C   0  0  0  0  0  0  0  0  0  0  0  0
    5.2084    1.1864   -0.5196 C   0  0  0  0  0  0  0  0  0  0  0  0
    5.3058   -1.1665   -1.3578 C   0  0  0  0  0  0  0  0  0  0  0  0
    3.9477   -0.6006    0.5253 O   0  0  0  0  0  0  0  0  0  0  0  0
    2.7309   -0.3954   -0.1335 C   0  0  0  0  0  0  0  0  0  0  0  0
    2.6765    0.0699   -1.3019 O   0  0  0  0  0  0  0  0  0  0  0  0
    1.4763   -0.7066    0.4924 N   0  0  0  0  0  0  0  0  0  0  0  0
    0.2615   -0.4864   -0.2039 N   0  0  0  0  0  0  0  0  0  0  0  0
   -0.3210    0.7924   -0.0554 C   0  0  0  0  0  0  0  0  0  0  0  0
   -1.5992    0.9367    0.1681 C   0  0  0  0  0  0  0  0  0  0  0  0
   -2.1486    2.2792    0.3133 C   0  0  0  0  0  0  0  0  0  0  0  0
   -1.3929    3.2806    0.2229 O   0  0  0  0  0  0  0  0  0  0  0  0
   -3.5798    2.3951    0.5618 C   0  0  0  0  0  0  0  0  0  0  0  0
   -4.3504    1.3226    0.6521 C   0  0  0  0  0  0  0  0  0  0  0  0
   -3.8076   -0.0389    0.5072 C   0  0  0  0  0  0  0  0  0  0  0  0
   -4.6049   -1.1591    0.6002 C   0  0  0  0  0  0  0  0  0  0  0  0
   -4.0997   -2.4426    0.4648 C   0  0  0  0  0  0  0  0  0  0  0  0
   -2.7535   -2.6155    0.2286 C   0  0  0  0  0  0  0  0  0  0  0  0
   -1.9262   -1.5156    0.1297 C   0  0  0  0  0  0  0  0  0  0  0  0
   -2.4624   -0.2415    0.2701 C   0  0  0  0  0  0  0  0  0  0  0  0
  1  2  1  0
  2  3  1  0
  2  4  1  0
  2  5  1  0
  5  6  1  0
  6  7  2  0
  6  8  1  0
  8  9  1  0
  9 10  1  0
 10 11  2  0
 11 12  1  0
 12 13  2  0
 12 14  1  0
 14 15  2  0
 15 16  1  0
 16 17  2  0
 17 18  1  0
 18 19  2  0
 19 20  1  0
 20 21  2  0
 21 11  1  0
 21 16  1  0
M  END
>  <zinc_id>  (1) 
ZINC000004465936

>  <smiles>  (1) 
CC(C)(C)OC(=O)NN/C=C1/C(=O)C=Cc2ccccc21

$$$$
