
     RDKit          3D

 20 22  0  0  0  0  0  0  0  0999 V2000
    6.0902    1.5919    0.0201 C   0  0  0  0  0  0  0  0  0  0  0  0
    6.0685    0.1111   -0.2876 C   0  0  0  0  0  0  0  0  0  0  0  0
    5.2133   -0.5600    0.6074 O   0  0  0  0  0  0  0  0  0  0  0  0
    3.8539   -0.2229    0.6727 C   0  0  0  0  0  0  0  0  0  0  0  0
    3.4442    0.6919   -0.0940 O   0  0  0  0  0  0  0  0  0  0  0  0
    2.9364   -0.9212    1.6120 C   0  0  0  0  0  0  0  0  0  0  0  0
    1.5650   -0.3125    1.4178 C   0  0  0  0  0  0  0  0  0  0  0  0
    1.1672    0.7685    2.1540 C   0  0  0  0  0  0  0  0  0  0  0  0
   -0.4092    1.0412    1.5567 S   0  0  0  0  0  0  0  0  0  0  0  0
   -0.4669   -0.2245    0.4171 C   0  0  0  0  0  0  0  0  0  0  0  0
   -1.5671   -0.6078   -0.5024 C   0  0  0  0  0  0  0  0  0  0  0  0
   -1.6296   -1.6076   -1.4115 C   0  0  0  0  0  0  0  0  0  0  0  0
   -2.8524   -1.5502   -2.0101 N   0  0  0  0  0  0  0  0  0  0  0  0
   -3.5603   -0.5256   -1.4881 C   0  0  0  0  0  0  0  0  0  0  0  0
   -4.8274   -0.0468   -1.7412 C   0  0  0  0  0  0  0  0  0  0  0  0
   -5.2690    1.0375   -1.0256 C   0  0  0  0  0  0  0  0  0  0  0  0
   -4.4812    1.6471   -0.0734 C   0  0  0  0  0  0  0  0  0  0  0  0
   -3.2323    1.1653    0.1671 C   0  0  0  0  0  0  0  0  0  0  0  0
   -2.7565    0.0697   -0.5401 C   0  0  0  0  0  0  0  0  0  0  0  0
    0.7131   -0.7885    0.5490 N   0  0  0  0  0  0  0  0  0  0  0  0
  1  2  1  0
  2  3  1  0
  3  4  1  0
  4  5  2  0
  4  6  1  0
  6  7  1  0
  7  8  2  0
  8  9  1  0
  9 10  1  0
 10 11  1  0
 11 12  2  0
 12 13  1  0
 13 14  1  0
 14 15  2  0
 15 16  1  0
 16 17  2  0
 17 18  1  0
 18 19  2  0
 10 20  2  0
 20  7  1  0
 19 11  1  0
 19 14  1  0
M  END
>  <zinc_id>  (1) 
ZINC000004299240

>  <smiles>  (1) 
CCOC(=O)Cc1csc(-c2c[nH]c3ccccc23)n1

$$$$
