
     RDKit          3D

 20 21  0  0  0  0  0  0  0  0999 V2000
   -4.4762    2.7979    0.6318 C   0  0  0  0  0  0  0  0  0  0  0  0
   -3.4262    1.7205    0.4800 C   0  0  0  0  0  0  0  0  0  0  0  0
   -1.8739    1.7633    1.1055 S   0  0  0  0  0  0  0  0  0  0  0  0
   -1.2877    0.1899    0.5064 C   0  0  0  0  0  0  0  0  0  0  0  0
    0.0126   -0.1875    0.8139 N   0  0  0  0  0  0  0  0  0  0  0  0
    1.0005   -0.9903    0.3784 C   0  0  0  0  0  0  0  0  0  0  0  0
    0.8727   -1.6772   -0.6605 O   0  0  0  0  0  0  0  0  0  0  0  0
    2.3013   -1.1306    1.0775 C   0  0  0  0  0  0  0  0  0  0  0  0
    3.2886   -0.3099    0.3727 C   0  0  0  0  0  0  0  0  0  0  0  0
    3.7664    0.8065    1.0710 C   0  0  0  0  0  0  0  0  0  0  0  0
    4.6737    1.6605    0.4687 C   0  0  0  0  0  0  0  0  0  0  0  0
    5.0931    1.3929   -0.8209 C   0  0  0  0  0  0  0  0  0  0  0  0
    4.6412    0.3015   -1.5379 C   0  0  0  0  0  0  0  0  0  0  0  0
    3.7230   -0.5359   -0.8862 C   0  0  0  0  0  0  0  0  0  0  0  0
   -2.3871   -0.2561   -0.1418 C   0  0  0  0  0  0  0  0  0  0  0  0
   -2.4608   -1.6629   -0.6424 C   0  0  0  0  0  0  0  0  0  0  0  0
   -3.5648   -2.0493   -1.4616 N   0  0  0  0  0  0  0  0  0  0  0  0
   -1.6144   -2.5419   -0.3957 O   0  0  0  0  0  0  0  0  0  0  0  0
   -3.4879    0.5278   -0.1633 C   0  0  0  0  0  0  0  0  0  0  0  0
   -4.7941    0.1808   -0.8464 C   0  0  0  0  0  0  0  0  0  0  0  0
  1  2  1  0
  2  3  1  0
  3  4  1  0
  4  5  1  0
  5  6  1  0
  6  7  2  0
  6  8  1  0
  8  9  1  0
  9 10  2  0
 10 11  1  0
 11 12  2  0
 12 13  1  0
 13 14  2  0
  4 15  2  0
 15 16  1  0
 16 17  1  0
 16 18  2  0
 15 19  1  0
 19 20  1  0
 19  2  2  0
 14  9  1  0
M  END
>  <zinc_id>  (1) 
ZINC000000035368

>  <smiles>  (1) 
Cc1sc(NC(=O)Cc2ccccc2)c(C(N)=O)c1C

$$$$
