
     RDKit          3D

 18 19  0  0  0  0  0  0  0  0999 V2000
   -5.5027    1.7742   -1.1751 C   0  0  0  0  0  0  0  0  0  0  0  0
   -4.1106    1.5943   -1.0759 O   0  0  0  0  0  0  0  0  0  0  0  0
   -3.5791    0.5356   -0.3429 C   0  0  0  0  0  0  0  0  0  0  0  0
   -4.3697   -0.3797    0.3150 C   0  0  0  0  0  0  0  0  0  0  0  0
   -3.7449   -1.3903    1.0123 C   0  0  0  0  0  0  0  0  0  0  0  0
   -2.3703   -1.4923    1.0572 C   0  0  0  0  0  0  0  0  0  0  0  0
   -1.5748   -0.5780    0.3999 C   0  0  0  0  0  0  0  0  0  0  0  0
   -0.0974   -0.7037    0.4594 C   0  0  0  0  0  0  0  0  0  0  0  0
    0.4226   -1.7019    1.1501 C   0  0  0  0  0  0  0  0  0  0  0  0
    2.1964   -1.8273    1.2038 S   0  0  0  0  0  0  0  0  0  0  0  0
    2.8375   -0.4728    0.2404 C   0  0  0  0  0  0  0  0  0  0  0  0
    4.2004   -0.2542    0.0605 N   0  0  0  0  0  0  0  0  0  0  0  0
    4.7168    0.9149   -0.6145 C   0  0  0  0  0  0  0  0  0  0  0  0
    4.3370    2.2023    0.0395 C   0  0  0  0  0  0  0  0  0  0  0  0
    6.1815    0.7390   -0.8386 C   0  0  0  0  0  0  0  0  0  0  0  0
    2.0177    0.3435   -0.3167 N   0  0  0  0  0  0  0  0  0  0  0  0
    0.6397    0.2709   -0.2390 N   0  0  0  0  0  0  0  0  0  0  0  0
   -2.2002    0.4256   -0.2925 C   0  0  0  0  0  0  0  0  0  0  0  0
  1  2  1  0
  2  3  1  0
  3  4  2  0
  4  5  1  0
  5  6  2  0
  6  7  1  0
  7  8  1  0
  8  9  2  0
  9 10  1  0
 10 11  1  0
 11 12  1  0
 12 13  1  0
 13 14  1  0
 13 15  1  0
 11 16  2  0
 16 17  1  0
  7 18  2  0
 18  3  1  0
 17  8  1  0
M  END
>  <zinc_id>  (1) 
ZINC000003532440

>  <smiles>  (1) 
COc1cccc(C2=CSC(NC(C)C)=NN2)c1

$$$$
