
     RDKit          3D

 21 24  0  0  0  0  0  0  0  0999 V2000
    3.3163    0.1140   -2.5472 N   0  0  0  0  0  0  0  0  0  0  0  0
    3.2671    0.4540   -1.1585 C   0  0  0  0  0  0  0  0  0  0  0  0
    4.2231    1.2658   -0.5904 C   0  0  0  0  0  0  0  0  0  0  0  0
    4.1876    1.5953    0.7253 C   0  0  0  0  0  0  0  0  0  0  0  0
    3.1716    1.1126    1.5339 C   0  0  0  0  0  0  0  0  0  0  0  0
    2.2198    0.2986    0.9472 C   0  0  0  0  0  0  0  0  0  0  0  0
    2.2442   -0.0442   -0.3897 C   0  0  0  0  0  0  0  0  0  0  0  0
    1.0023   -1.0990   -1.1273 S   0  0  0  0  0  0  0  0  0  0  0  0
   -0.1438   -1.5424    0.1635 C   0  0  0  0  0  0  0  0  0  0  0  0
    0.1111   -2.6311    0.8692 N   0  0  0  0  0  0  0  0  0  0  0  0
   -0.6420   -3.0866    1.8552 C   0  0  0  0  0  0  0  0  0  0  0  0
   -1.7495   -2.3712    2.1465 N   0  0  0  0  0  0  0  0  0  0  0  0
   -2.0586   -1.2398    1.4486 C   0  0  0  0  0  0  0  0  0  0  0  0
   -3.3346   -0.1109    1.5288 S   0  0  0  0  0  0  0  0  0  0  0  0
   -2.8578    0.9352    0.2706 C   0  0  0  0  0  0  0  0  0  0  0  0
   -1.6946    0.3598   -0.1822 C   0  0  0  0  0  0  0  0  0  0  0  0
   -1.2828   -0.7597    0.4239 C   0  0  0  0  0  0  0  0  0  0  0  0
   -1.0758    1.1422   -1.3344 C   0  0  0  0  0  0  0  0  0  0  0  0
   -2.1932    1.2720   -2.3585 C   0  0  0  0  0  0  0  0  0  0  0  0
   -3.3222    2.1340   -1.8614 C   0  0  0  0  0  0  0  0  0  0  0  0
   -3.3883    2.2015   -0.3630 C   0  0  0  0  0  0  0  0  0  0  0  0
  1  2  1  0
  2  3  2  0
  3  4  1  0
  4  5  2  0
  5  6  1  0
  6  7  2  0
  7  8  1  0
  8  9  1  0
  9 10  2  0
 10 11  1  0
 11 12  2  0
 12 13  1  0
 13 14  1  0
 14 15  1  0
 15 16  2  0
 16 17  1  0
 16 18  1  0
 18 19  1  0
 19 20  1  0
 20 21  1  0
  7  2  1  0
 17  9  1  0
 17 13  2  0
 21 15  1  0
M  END
>  <zinc_id>  (1) 
ZINC000000485045

>  <smiles>  (1) 
Nc1ccccc1Sc1ncnc2sc3c(c12)CCCC3

$$$$
