
     RDKit          3D

 20 22  0  0  0  0  0  0  0  0999 V2000
    5.3029    0.8191    0.3958 C   0  0  0  0  0  0  0  0  0  0  0  0
    4.4246    0.3752   -0.5243 C   0  0  0  0  0  0  0  0  0  0  0  0
    2.9782    0.5479   -0.3572 C   0  0  0  0  0  0  0  0  0  0  0  0
    2.2056   -0.5789   -0.3184 N   0  0  0  0  0  0  0  0  0  0  0  0
    0.8736   -0.9543   -0.1867 C   0  0  0  0  0  0  0  0  0  0  0  0
    0.5820   -2.3475   -0.2120 C   0  0  0  0  0  0  0  0  0  0  0  0
   -0.6810   -2.7829   -0.0904 C   0  0  0  0  0  0  0  0  0  0  0  0
   -1.0222   -4.2512   -0.1134 C   0  0  0  0  0  0  0  0  0  0  0  0
   -1.6812   -1.8549    0.0586 C   0  0  0  0  0  0  0  0  0  0  0  0
   -3.0363   -2.2628    0.1916 C   0  0  0  0  0  0  0  0  0  0  0  0
   -4.1342   -2.6097    0.3116 N   0  0  0  0  0  0  0  0  0  0  0  0
   -1.3795   -0.4990    0.0813 C   0  0  0  0  0  0  0  0  0  0  0  0
   -2.1433    0.6000    0.2112 N   0  0  0  0  0  0  0  0  0  0  0  0
   -1.4070    1.6991    0.1753 C   0  0  0  0  0  0  0  0  0  0  0  0
   -1.6414    3.0561    0.2573 C   0  0  0  0  0  0  0  0  0  0  0  0
   -0.6332    3.9837    0.1842 C   0  0  0  0  0  0  0  0  0  0  0  0
    0.6697    3.5731    0.0231 C   0  0  0  0  0  0  0  0  0  0  0  0
    0.9133    2.2485   -0.0586 C   0  0  0  0  0  0  0  0  0  0  0  0
   -0.0831    1.2884    0.0119 C   0  0  0  0  0  0  0  0  0  0  0  0
   -0.1074   -0.0499   -0.0408 N   0  0  0  0  0  4  0  0  0  0  0  0
  1  2  2  0
  2  3  1  0
  3  4  1  0
  4  5  1  0
  5  6  2  0
  6  7  1  0
  7  8  1  0
  7  9  2  0
  9 10  1  0
 10 11  3  0
  9 12  1  0
 12 13  1  0
 13 14  1  0
 14 15  2  0
 15 16  1  0
 16 17  2  0
 17 18  1  0
 18 19  2  0
 19 20  1  0
 20  5  1  0
 20 12  2  0
 19 14  1  0
M  CHG  1  20   1
M  END
>  <zinc_id>  (1) 
ZINC000003043061

>  <smiles>  (1) 
C=CCNc1cc(C)c(C#N)c2[nH]c3ccccc3[n+]12

$$$$
