
     RDKit          3D

 21 23  0  0  0  0  0  0  0  0999 V2000
    0.6413   -2.3292    0.3622 O   0  0  0  0  0  0  0  0  0  0  0  0
   -0.1313   -1.4046    0.6780 C   0  0  0  0  0  0  0  0  0  0  0  0
   -0.0259   -0.1878    0.0199 N   0  0  0  0  0  0  0  0  0  0  0  0
    0.9033    0.0242   -0.9663 N   0  0  0  0  0  0  0  0  0  0  0  0
    2.0910    0.3942   -0.9158 C   0  0  0  0  0  0  0  0  0  0  0  0
    2.7884    0.5101   -2.2261 C   0  0  0  0  0  0  0  0  0  0  0  0
    4.2865    0.4697   -2.1026 C   0  0  0  0  0  0  0  0  0  0  0  0
    4.6695   -0.1469   -0.7728 C   0  0  0  0  0  0  0  0  0  0  0  0
    4.9002    0.9232    0.2881 C   0  0  0  0  0  0  0  0  0  0  0  0
    3.5944    1.6714    0.4787 C   0  0  0  0  0  0  0  0  0  0  0  0
    2.5083    0.6292    0.4904 C   0  0  0  0  0  0  0  0  0  0  0  0
   -1.2077   -1.5797    1.7883 C   0  0  2  0  0  0  0  0  0  0  0  0
   -2.3639   -2.3738    0.9358 C   0  0  0  0  0  0  0  0  0  0  0  0
   -2.4468   -1.8013   -0.3135 O   0  0  0  0  0  0  0  0  0  0  0  0
   -2.7776   -0.4620   -0.4192 C   0  0  0  0  0  0  0  0  0  0  0  0
   -3.3891    0.1432   -1.4886 C   0  0  0  0  0  0  0  0  0  0  0  0
   -3.6807    1.5150   -1.4925 C   0  0  0  0  0  0  0  0  0  0  0  0
   -3.3442    2.2702   -0.3954 C   0  0  0  0  0  0  0  0  0  0  0  0
   -2.7318    1.6552    0.6715 C   0  0  0  0  0  0  0  0  0  0  0  0
   -2.4406    0.2961    0.6803 C   0  0  0  0  0  0  0  0  0  0  0  0
   -1.8432   -0.2166    1.7617 O   0  0  0  0  0  0  0  0  0  0  0  0
  1  2  2  0
  2  3  1  0
  3  4  1  0
  4  5  2  3
  5  6  1  0
  6  7  1  0
  7  8  1  0
  8  9  1  0
  9 10  1  0
 10 11  1  0
 12  2  1  6
 12 13  1  0
 13 14  1  0
 14 15  1  0
 15 16  2  0
 16 17  1  0
 17 18  2  0
 18 19  1  0
 19 20  2  0
 20 21  1  0
 11  5  1  0
 21 12  1  0
 20 15  1  0
M  END
>  <zinc_id>  (1) 
ZINC000000047293

>  <smiles>  (1) 
O=C(NN=C1CCCCCC1)[C@@H]1COc2ccccc2O1

$$$$
