
     RDKit          3D

 20 21  0  0  0  0  0  0  0  0999 V2000
    5.9407   -0.4880    0.8698 C   0  0  0  0  0  0  0  0  0  0  0  0
    5.3242   -1.0024   -0.4374 C   0  0  0  0  0  0  0  0  0  0  0  0
    3.9323   -0.4998   -0.4712 C   0  0  0  0  0  0  0  0  0  0  0  0
    3.6287    0.7128   -1.0413 C   0  0  0  0  0  0  0  0  0  0  0  0
    2.3566    1.2122   -1.0926 C   0  0  0  0  0  0  0  0  0  0  0  0
    1.3180    0.4937   -0.5598 C   0  0  0  0  0  0  0  0  0  0  0  0
   -0.0277    0.9602   -0.5824 N   0  0  0  0  0  0  0  0  0  0  0  0
   -1.0490    0.1593   -0.0103 C   0  0  0  0  0  0  0  0  0  0  0  0
   -0.7722   -1.0463    0.5605 N   0  0  0  0  0  0  0  0  0  0  0  0
   -1.7325   -1.8017    1.0997 C   0  0  0  0  0  0  0  0  0  0  0  0
   -1.4565   -3.1163    1.7263 C   0  0  0  0  0  0  0  0  0  0  0  0
   -3.0359   -1.3575    1.0816 C   0  0  0  0  0  0  0  0  0  0  0  0
   -3.3646   -0.1432    0.5147 C   0  0  0  0  0  0  0  0  0  0  0  0
   -4.7643    0.3548    0.4846 C   0  0  0  0  0  0  0  0  0  0  0  0
   -2.3443    0.6279   -0.0421 C   0  0  0  0  0  0  0  0  0  0  0  0
   -2.6826    1.9136   -0.6440 C   0  0  0  0  0  0  0  0  0  0  0  0
   -4.0036    2.3832   -0.6721 N   0  0  0  0  0  0  0  0  0  0  0  0
   -1.7544    2.5945   -1.1399 O   0  0  0  0  0  0  0  0  0  0  0  0
    1.6036   -0.7225    0.0152 C   0  0  0  0  0  0  0  0  0  0  0  0
    2.8835   -1.2343    0.0715 C   0  0  0  0  0  0  0  0  0  0  0  0
  1  2  1  0
  2  3  1  0
  3  4  2  0
  4  5  1  0
  5  6  2  0
  6  7  1  0
  7  8  1  0
  8  9  2  0
  9 10  1  0
 10 11  1  0
 10 12  2  0
 12 13  1  0
 13 14  1  0
 13 15  2  0
 15 16  1  0
 16 17  1  0
 16 18  2  0
  6 19  1  0
 19 20  2  0
 20  3  1  0
 15  8  1  0
M  END
>  <zinc_id>  (1) 
ZINC000000104422

>  <smiles>  (1) 
CCc1ccc(Nc2nc(C)cc(C)c2C(N)=O)cc1

$$$$
