
     RDKit          3D

 20 22  0  0  0  0  0  0  0  0999 V2000
   -6.2951    0.8589   -0.0646 C   0  0  0  0  0  0  0  0  0  0  0  0
   -4.8071    0.8008   -0.0345 C   0  0  0  0  0  0  0  0  0  0  0  0
   -4.2004   -0.4459   -0.0560 C   0  0  0  0  0  0  0  0  0  0  0  0
   -2.8319   -0.4903   -0.0281 C   0  0  0  0  0  0  0  0  0  0  0  0
   -2.0382    0.6365    0.0200 C   0  0  0  0  0  0  0  0  0  0  0  0
   -0.6143    0.4760    0.0459 N   0  0  0  0  0  0  0  0  0  0  0  0
   -0.0286   -0.8108    0.0228 C   0  0  0  0  0  0  0  0  0  0  0  0
   -0.8086   -1.7797   -0.0206 O   0  0  0  0  0  0  0  0  0  0  0  0
    1.4480   -1.0193    0.0486 C   0  0  0  0  0  0  0  0  0  0  0  0
    1.9676   -2.2840    0.0247 C   0  0  0  0  0  0  0  0  0  0  0  0
    1.2432   -3.5388   -0.0255 N   0  0  0  0  0  0  0  0  0  0  0  0
    3.6493   -2.0170    0.0680 S   0  0  0  0  0  0  0  0  0  0  0  0
    3.6555   -0.3171    0.1151 C   0  0  0  0  0  0  0  0  0  0  0  0
    2.3283    0.0041    0.0956 C   0  0  0  0  0  0  0  0  0  0  0  0
    2.0807    1.5080    0.1319 C   0  0  0  0  0  0  0  0  0  0  0  0
    2.8718    2.0227    1.3048 C   0  0  0  0  0  0  0  0  0  0  0  0
    4.3402    1.8238    1.1744 C   0  0  0  0  0  0  0  0  0  0  0  0
    4.7143    0.7615    0.1675 C   0  0  0  0  0  0  0  0  0  0  0  0
   -2.6435    1.8633    0.0410 C   0  0  0  0  0  0  0  0  0  0  0  0
   -4.0312    1.9471    0.0138 C   0  0  0  0  0  0  0  0  0  0  0  0
  1  2  1  0
  2  3  2  0
  3  4  1  0
  4  5  2  0
  5  6  1  0
  6  7  1  0
  7  8  2  0
  7  9  1  0
  9 10  2  0
 10 11  1  0
 10 12  1  0
 12 13  1  0
 13 14  2  0
 14 15  1  0
 15 16  1  0
 16 17  1  0
 17 18  1  0
  5 19  1  0
 19 20  2  0
 20  2  1  0
 14  9  1  0
 18 13  1  0
M  END
>  <zinc_id>  (1) 
ZINC000000432636

>  <smiles>  (1) 
Cc1ccc(NC(=O)c2c(N)sc3c2CCCC3)cc1

$$$$
