
     RDKit          3D

 20 22  0  0  0  0  0  0  0  0999 V2000
   -0.0980    1.1224    2.3906 N   0  0  0  0  0  0  0  0  0  0  0  0
    0.4333    0.7489    1.4060 C   0  0  0  0  0  0  0  0  0  0  0  0
    1.1188    0.2963    0.1933 C   0  0  0  0  0  0  0  0  0  0  0  0
    0.7249    0.7792   -1.0200 C   0  0  0  0  0  0  0  0  0  0  0  0
   -0.2925    1.6647   -1.4323 N   0  0  0  0  0  0  0  0  0  0  0  0
   -1.2679    2.2786   -0.6054 C   0  0  0  0  0  0  0  0  0  0  0  0
   -2.1914    1.2318   -0.0959 C   0  0  0  0  0  0  0  0  0  0  0  0
   -3.0982    1.5814    0.8992 C   0  0  0  0  0  0  0  0  0  0  0  0
   -3.9609    0.5858    1.3590 C   0  0  0  0  0  0  0  0  0  0  0  0
   -3.9120   -0.6899    0.8444 C   0  0  0  0  0  0  0  0  0  0  0  0
   -4.8038   -1.6235    1.3547 O   0  0  0  0  0  0  0  0  0  0  0  0
   -3.0089   -1.0334   -0.1449 C   0  0  0  0  0  0  0  0  0  0  0  0
   -2.1654   -0.0543   -0.5923 C   0  0  0  0  0  0  0  0  0  0  0  0
    1.8143   -0.0021   -2.1086 S   0  0  0  0  0  0  0  0  0  0  0  0
    2.7185   -0.9052   -0.9810 C   0  0  0  0  0  0  0  0  0  0  0  0
    2.1406   -0.5679    0.2154 C   0  0  0  0  0  0  0  0  0  0  0  0
    2.8067   -1.2756    1.3795 C   0  0  0  0  0  0  0  0  0  0  0  0
    4.2759   -0.9187    1.2769 C   0  0  0  0  0  0  0  0  0  0  0  0
    4.8899   -1.3413   -0.0206 C   0  0  0  0  0  0  0  0  0  0  0  0
    3.8760   -1.8773   -1.0083 C   0  0  0  0  0  0  0  0  0  0  0  0
  1  2  3  0
  2  3  1  0
  3  4  2  0
  4  5  1  0
  5  6  1  0
  6  7  1  0
  7  8  2  0
  8  9  1  0
  9 10  2  0
 10 11  1  0
 10 12  1  0
 12 13  2  0
  4 14  1  0
 14 15  1  0
 15 16  2  0
 16 17  1  0
 17 18  1  0
 18 19  1  0
 19 20  1  0
 16  3  1  0
 13  7  1  0
 20 15  1  0
M  END
>  <zinc_id>  (1) 
ZINC000000562947

>  <smiles>  (1) 
N#Cc1c(NCc2ccc(O)cc2)sc2c1CCCC2

$$$$
