
     RDKit          3D

 20 21  0  0  0  0  0  0  0  0999 V2000
   -5.4395    1.6000   -1.6678 C   0  0  0  0  0  0  0  0  0  0  0  0
   -4.2298    0.9139   -1.4093 O   0  0  0  0  0  0  0  0  0  0  0  0
   -3.8241    0.7370   -0.0942 C   0  0  0  0  0  0  0  0  0  0  0  0
   -4.5569    1.1991    0.8240 O   0  0  0  0  0  0  0  0  0  0  0  0
   -2.5838    0.0364    0.2383 C   0  0  0  0  0  0  0  0  0  0  0  0
   -2.4390   -1.3302    0.4688 C   0  0  0  0  0  0  0  0  0  0  0  0
   -3.5284   -2.3501    0.4207 C   0  0  0  0  0  0  0  0  0  0  0  0
   -1.1472   -1.5856    0.7443 N   0  0  0  0  0  0  0  0  0  0  0  0
   -0.4162   -0.4567    0.7102 C   0  0  0  0  0  0  0  0  0  0  0  0
    1.0229   -0.3214    0.9544 C   0  0  0  0  0  0  0  0  0  0  0  0
    1.6857   -1.3529    1.2302 O   0  0  0  0  0  0  0  0  0  0  0  0
    1.7030    0.9092    0.8957 N   0  0  0  0  0  0  0  0  0  0  0  0
    3.1247    1.0654    1.1337 C   0  0  0  0  0  0  0  0  0  0  0  0
    3.9303    0.2726    0.1726 C   0  0  0  0  0  0  0  0  0  0  0  0
    3.4522   -0.5255   -0.8342 C   0  0  0  0  0  0  0  0  0  0  0  0
    4.5835   -1.0482   -1.4495 C   0  0  0  0  0  0  0  0  0  0  0  0
    5.6706   -0.5329   -0.7757 C   0  0  0  0  0  0  0  0  0  0  0  0
    5.2347    0.2490    0.1831 O   0  0  0  0  0  0  0  0  0  0  0  0
   -1.3120    0.5471    0.3958 C   0  0  0  0  0  0  0  0  0  0  0  0
   -0.9304    1.9736    0.2531 C   0  0  0  0  0  0  0  0  0  0  0  0
  1  2  1  0
  2  3  1  0
  3  4  2  0
  3  5  1  0
  5  6  2  0
  6  7  1  0
  6  8  1  0
  8  9  1  0
  9 10  1  0
 10 11  2  0
 10 12  1  0
 12 13  1  0
 13 14  1  0
 14 15  2  0
 15 16  1  0
 16 17  2  0
 17 18  1  0
  9 19  2  0
 19 20  1  0
 19  5  1  0
 18 14  1  0
M  END
>  <zinc_id>  (1) 
ZINC000003446655

>  <smiles>  (1) 
COC(=O)c1c(C)[nH]c(C(=O)NCc2ccco2)c1C

$$$$
