
     RDKit          3D

 21 24  0  0  0  0  0  0  0  0999 V2000
   -2.3141   -3.7965   -1.0732 C   0  0  0  0  0  0  0  0  0  0  0  0
   -2.2079   -2.5335   -0.2850 C   0  0  0  0  0  0  0  0  0  0  0  0
   -2.5793   -2.3047    1.0260 C   0  0  0  0  0  0  0  0  0  0  0  0
   -2.2777   -0.9825    1.2817 C   0  0  0  0  0  0  0  0  0  0  0  0
   -2.5066   -0.3410    2.5279 N   0  0  0  0  0  0  0  0  0  0  0  0
   -1.7463   -0.4244    0.1811 N   0  0  0  0  0  0  0  0  0  0  0  0
   -1.2921    0.9201    0.0001 C   0  0  0  0  0  0  0  0  0  0  0  0
   -2.2132    1.8907   -0.0544 N   0  0  0  0  0  0  0  0  0  0  0  0
   -1.9337    3.1931   -0.2200 C   0  0  0  0  0  0  0  0  0  0  0  0
   -0.6293    3.5321   -0.3383 N   0  0  0  0  0  0  0  0  0  0  0  0
    0.3455    2.5645   -0.2874 C   0  0  0  0  0  0  0  0  0  0  0  0
    2.0461    2.6270   -0.3980 S   0  0  0  0  0  0  0  0  0  0  0  0
    2.3884    0.9680   -0.2293 C   0  0  0  0  0  0  0  0  0  0  0  0
    1.1609    0.4078   -0.0908 C   0  0  0  0  0  0  0  0  0  0  0  0
    0.0795    1.2365   -0.1197 C   0  0  0  0  0  0  0  0  0  0  0  0
    1.1242   -1.1097    0.0858 C   0  0  0  0  0  0  0  0  0  0  0  0
    2.4582   -1.6573    0.3171 C   0  0  0  0  0  0  0  0  0  0  0  0
    3.3839   -1.1629   -0.9780 C   0  0  2  0  0  0  0  0  0  0  0  0
    4.7337   -1.8970   -0.3885 C   0  0  0  0  0  0  0  0  0  0  0  0
    3.7034    0.2607   -0.2248 C   0  0  0  0  0  0  0  0  0  0  0  0
   -1.7238   -1.3911   -0.7326 N   0  0  0  0  0  0  0  0  0  0  0  0
  1  2  1  0
  2  3  1  0
  3  4  2  0
  4  5  1  0
  4  6  1  0
  6  7  1  0
  7  8  2  0
  8  9  1  0
  9 10  2  0
 10 11  1  0
 11 12  1  0
 12 13  1  0
 13 14  2  0
 14 15  1  0
 14 16  1  0
 16 17  1  0
 17 18  1  0
 18 19  1  1
 18 20  1  0
  6 21  1  0
 21  2  2  0
 15  7  1  0
 15 11  2  0
 20 13  1  0
M  END
>  <zinc_id>  (1) 
ZINC000003209521

>  <smiles>  (1) 
Cc1cc(N)n(-c2ncnc3sc4c(c23)CC[C@H](C)C4)n1

$$$$
