
     RDKit          3D

 19 21  0  0  0  0  0  0  0  0999 V2000
    5.8268   -0.0490    0.3732 C   0  0  0  0  0  0  0  0  0  0  0  0
    4.3627   -0.2740    0.5703 C   0  0  0  0  0  0  0  0  0  0  0  0
    4.0825   -0.8100    1.9591 C   0  0  0  0  0  0  0  0  0  0  0  0
    3.7749   -1.2495   -0.4159 C   0  0  0  0  0  0  0  0  0  0  0  0
    2.3592   -1.3852   -0.1268 N   0  0  0  0  0  0  0  0  0  0  0  0
    1.5163   -0.2397   -0.1916 C   0  0  0  0  0  0  0  0  0  0  0  0
    2.0044    0.9712   -0.5162 N   0  0  0  0  0  0  0  0  0  0  0  0
    1.2473    2.0811   -0.5901 C   0  0  0  0  0  0  0  0  0  0  0  0
   -0.0700    1.9783   -0.3256 N   0  0  0  0  0  0  0  0  0  0  0  0
   -0.6135    0.7927    0.0045 C   0  0  0  0  0  0  0  0  0  0  0  0
    0.1696   -0.3575    0.0813 C   0  0  0  0  0  0  0  0  0  0  0  0
   -0.6385   -1.3711    0.4273 N   0  0  0  0  0  0  0  0  0  0  0  0
   -1.8932   -0.9425    0.5775 C   0  0  0  0  0  0  0  0  0  0  0  0
   -3.0880   -1.5540    0.9175 C   0  0  0  0  0  0  0  0  0  0  0  0
   -4.2701   -0.8460    1.0003 C   0  0  0  0  0  0  0  0  0  0  0  0
   -4.2962    0.5086    0.7433 C   0  0  0  0  0  0  0  0  0  0  0  0
   -5.4615    1.2002    0.8261 F   0  0  0  0  0  0  0  0  0  0  0  0
   -3.1047    1.1153    0.4048 C   0  0  0  0  0  0  0  0  0  0  0  0
   -1.9080    0.4313    0.3147 C   0  0  0  0  0  0  0  0  0  0  0  0
  1  2  1  0
  2  3  1  0
  2  4  1  0
  4  5  1  0
  5  6  1  0
  6  7  2  0
  7  8  1  0
  8  9  2  0
  9 10  1  0
 10 11  2  0
 11 12  1  0
 12 13  1  0
 13 14  2  0
 14 15  1  0
 15 16  2  0
 16 17  1  0
 16 18  1  0
 18 19  2  0
 11  6  1  0
 19 13  1  0
 19 10  1  0
M  END
>  <zinc_id>  (1) 
ZINC000000543192

>  <smiles>  (1) 
CC(C)CNc1ncnc2c1[nH]c1ccc(F)cc12

$$$$
