
     RDKit          3D

 20 22  0  0  0  0  0  0  0  0999 V2000
    3.9007   -1.2403    1.3409 O   0  0  0  0  0  0  0  0  0  0  0  0
    2.6537   -1.1848    1.9316 C   0  0  0  0  0  0  0  0  0  0  0  0
    1.5995   -1.8945    1.1093 C   0  0  0  0  0  0  0  0  0  0  0  0
    1.4368   -1.3164   -0.2600 C   0  0  0  0  0  0  0  0  0  0  0  0
    1.0348    0.1191   -0.2757 C   0  0  0  0  0  0  0  0  0  0  0  0
   -0.2684    0.2972    0.4167 C   0  0  0  0  0  0  0  0  0  0  0  0
   -0.4196    1.1678    1.4722 C   0  0  0  0  0  0  0  0  0  0  0  0
   -1.6518    1.2944    2.0789 C   0  0  0  0  0  0  0  0  0  0  0  0
   -2.7389    0.5539    1.6365 C   0  0  0  0  0  0  0  0  0  0  0  0
   -2.5874   -0.3132    0.5850 C   0  0  0  0  0  0  0  0  0  0  0  0
   -3.6375   -1.0686    0.1116 C   0  0  0  0  0  0  0  0  0  0  0  0
   -3.4581   -1.9456   -0.9618 C   0  0  0  0  0  0  0  0  0  0  0  0
   -2.2306   -2.0548   -1.5468 C   0  0  0  0  0  0  0  0  0  0  0  0
   -1.1943   -1.2901   -1.0575 C   0  0  0  0  0  0  0  0  0  0  0  0
   -1.3567   -0.4304   -0.0104 C   0  0  0  0  0  0  0  0  0  0  0  0
    0.7447    0.5853   -2.0269 S   0  0  0  0  0  0  0  0  0  0  0  0
    0.7566    2.3951   -2.0758 C   0  0  0  0  0  0  0  0  0  0  0  0
    2.0843    2.9897   -1.7700 C   0  0  0  0  0  0  0  0  0  0  0  0
    3.0338    2.1034   -1.0505 C   0  0  0  0  0  0  0  0  0  0  0  0
    2.2985    1.2330    0.3526 S   0  0  0  0  0  0  0  0  0  0  0  0
  1  2  1  0
  2  3  1  0
  3  4  1  0
  4  5  1  0
  5  6  1  0
  6  7  2  0
  7  8  1  0
  8  9  2  0
  9 10  1  0
 10 11  2  0
 11 12  1  0
 12 13  2  0
 13 14  1  0
 14 15  2  0
  5 16  1  0
 16 17  1  0
 17 18  1  0
 18 19  1  0
 19 20  1  0
 20  5  1  0
 15  6  1  0
 15 10  1  0
M  END
>  <zinc_id>  (1) 
ZINC000002580949

>  <smiles>  (1) 
OCCCC1(c2cccc3ccccc23)SCCCS1

$$$$
