
     RDKit          3D

 21 22  0  0  0  0  0  0  0  0999 V2000
    6.4998    1.1241    0.1536 C   0  0  0  0  0  0  0  0  0  0  0  0
    5.0289    0.9527    0.0838 C   0  0  0  0  0  0  0  0  0  0  0  0
    4.1862    1.2990    1.1146 C   0  0  0  0  0  0  0  0  0  0  0  0
    2.8333    1.1461    1.0905 C   0  0  0  0  0  0  0  0  0  0  0  0
    2.1887    0.6071   -0.0275 C   0  0  0  0  0  0  0  0  0  0  0  0
    0.7447    0.3870   -0.0740 C   0  0  0  0  0  0  0  0  0  0  0  0
    0.0164    1.0394   -0.8972 O   0  0  0  0  0  0  0  0  0  0  0  0
    0.0799   -0.5275    0.7600 N   0  0  0  0  0  0  0  0  0  0  0  0
   -1.3303   -0.7617    0.7400 C   0  0  0  0  0  0  0  0  0  0  0  0
   -2.1576   -0.0945   -0.1437 C   0  0  0  0  0  0  0  0  0  0  0  0
   -3.5227   -0.2776   -0.2268 C   0  0  0  0  0  0  0  0  0  0  0  0
   -4.3476    0.3948   -1.1568 N   0  0  0  0  0  4  0  0  0  0  0  0
   -5.5470    0.0976   -1.2096 O   0  0  0  0  0  0  0  0  0  0  0  0
   -3.8818    1.3466   -2.0156 O   0  0  0  0  0  1  0  0  0  0  0  0
   -4.1103   -1.1906    0.6315 C   0  0  0  0  0  0  0  0  0  0  0  0
   -3.3152   -1.8742    1.5278 C   0  0  0  0  0  0  0  0  0  0  0  0
   -1.9362   -1.6667    1.5869 C   0  0  0  0  0  0  0  0  0  0  0  0
   -1.1673   -2.3481    2.4725 F   0  0  0  0  0  0  0  0  0  0  0  0
    3.0148    0.2533   -1.0768 C   0  0  0  0  0  0  0  0  0  0  0  0
    2.3344   -0.3190   -2.2896 C   0  0  0  0  0  0  0  0  0  0  0  0
    4.3890    0.4122   -1.0435 C   0  0  0  0  0  0  0  0  0  0  0  0
  1  2  1  0
  2  3  2  0
  3  4  1  0
  4  5  2  0
  5  6  1  0
  6  7  2  0
  6  8  1  0
  8  9  1  0
  9 10  2  0
 10 11  1  0
 11 12  1  0
 12 13  2  0
 12 14  1  0
 11 15  2  0
 15 16  1  0
 16 17  2  0
 17 18  1  0
  5 19  1  0
 19 20  1  0
 19 21  2  0
 21  2  1  0
 17  9  1  0
M  CHG  2  12   1  14  -1
M  END
>  <zinc_id>  (1) 
ZINC000000558003

>  <smiles>  (1) 
Cc1ccc(C(=O)Nc2cc([N+](=O)[O-])ccc2F)c(C)c1

$$$$
