
     RDKit          3D

 19 21  0  0  0  0  0  0  0  0999 V2000
    5.6494    0.2186    1.6131 C   0  0  0  0  0  0  0  0  0  0  0  0
    4.3061    0.7995    1.5139 N   0  0  0  0  0  0  0  0  0  0  0  0
    3.3839    0.2811    0.5278 C   0  0  0  0  0  0  0  0  0  0  0  0
    2.1570    0.7025    0.3279 N   0  0  0  0  0  0  0  0  0  0  0  0
    1.4250    0.1562   -0.5897 C   0  0  0  0  0  0  0  0  0  0  0  0
    0.0289    0.5816   -0.8713 C   0  0  0  0  0  0  0  0  0  0  0  0
   -0.3865    1.5516   -1.7597 C   0  0  0  0  0  0  0  0  0  0  0  0
    0.5176    2.3675   -2.6185 C   0  0  0  0  0  0  0  0  0  0  0  0
   -1.7377    1.6254   -1.7099 N   0  0  0  0  0  0  0  0  0  0  0  0
   -2.2045    0.7343   -0.8181 C   0  0  0  0  0  0  0  0  0  0  0  0
   -3.4606    0.3742   -0.3628 C   0  0  0  0  0  0  0  0  0  0  0  0
   -3.5905   -0.6023    0.5804 C   0  0  0  0  0  0  0  0  0  0  0  0
   -2.5154   -1.2736    1.1250 C   0  0  0  0  0  0  0  0  0  0  0  0
   -2.7050   -2.2730    2.0953 O   0  0  0  0  0  0  0  0  0  0  0  0
   -4.0213   -2.5775    2.5030 C   0  0  0  0  0  0  0  0  0  0  0  0
   -1.2634   -0.9221    0.6783 C   0  0  0  0  0  0  0  0  0  0  0  0
   -1.1240    0.0750   -0.2853 C   0  0  0  0  0  0  0  0  0  0  0  0
    1.9844   -0.8593   -1.3228 C   0  0  0  0  0  0  0  0  0  0  0  0
    3.5566   -0.9596   -0.6266 S   0  0  0  0  0  0  0  0  0  0  0  0
  1  2  1  0
  2  3  1  0
  3  4  2  0
  4  5  1  0
  5  6  1  0
  6  7  2  0
  7  8  1  0
  7  9  1  0
  9 10  1  0
 10 11  2  0
 11 12  1  0
 12 13  2  0
 13 14  1  0
 14 15  1  0
 13 16  1  0
 16 17  2  0
  5 18  2  0
 18 19  1  0
 19  3  1  0
 17  6  1  0
 17 10  1  0
M  END
>  <zinc_id>  (1) 
ZINC000000544530

>  <smiles>  (1) 
CNc1nc(-c2c(C)[nH]c3ccc(OC)cc23)cs1

$$$$
