
     RDKit          3D

 21 23  0  0  0  0  0  0  0  0999 V2000
    0.4576    0.0063    2.7218 C   0  0  0  0  0  0  0  0  0  0  0  0
   -0.6673   -0.0127    1.6569 C   0  0  0  0  0  0  0  0  0  0  0  0
   -1.6984    0.6936    1.8817 C   0  0  0  0  0  0  0  0  0  0  0  0
   -2.9740    0.9193    1.0857 C   0  0  2  0  0  0  0  0  0  0  0  0
   -3.7468   -0.4532    1.4547 C   0  0  0  0  0  0  0  0  0  0  0  0
   -2.4216    0.4619   -0.3722 C   0  0  1  0  0  0  0  0  0  0  0  0
   -3.6822    0.3733   -1.1179 C   0  0  0  0  0  0  0  0  0  0  0  0
   -3.6485    0.0083   -2.4191 O   0  0  0  0  0  0  0  0  0  0  0  0
   -1.4599    1.3894   -0.7844 C   0  0  0  0  0  0  0  0  0  0  0  0
   -0.1611    1.4003   -0.3174 O   0  0  0  0  0  0  0  0  0  0  0  0
    0.1338    0.0204   -0.8130 C   0  0  1  0  0  0  0  0  0  0  0  0
    1.6786   -0.0500   -0.4781 C   0  0  0  0  0  0  0  0  0  0  0  0
    2.2446    0.3985    0.6076 C   0  0  0  0  0  0  0  0  0  0  0  0
    3.5926    0.3107    0.8461 C   0  0  0  0  0  0  0  0  0  0  0  0
    4.4168   -0.2747   -0.0875 C   0  0  0  0  0  0  0  0  0  0  0  0
    5.8044   -0.3809    0.1261 O   0  0  0  0  0  0  0  0  0  0  0  0
    3.8248   -0.7490   -1.2336 C   0  0  0  0  0  0  0  0  0  0  0  0
    2.4763   -0.6496   -1.4488 C   0  0  0  0  0  0  0  0  0  0  0  0
   -0.4385   -0.9007    0.4406 C   0  0  2  0  0  0  0  0  0  0  0  0
   -1.9985   -1.0584   -0.0990 C   0  0  2  0  0  0  0  0  0  0  0  0
   -1.7327   -1.4528   -1.6502 C   0  0  0  0  0  0  0  0  0  0  0  0
  1  2  1  0
  2  3  2  0
  3  4  1  0
  4  5  1  1
  4  6  1  0
  6  7  1  6
  7  8  1  0
  6  9  1  0
  9 10  1  0
 10 11  1  0
 11 12  1  1
 12 13  2  0
 13 14  1  0
 14 15  2  0
 15 16  1  0
 15 17  1  0
 17 18  2  0
 11 19  1  0
 19 20  1  0
 20 21  1  6
 19  2  1  1
 20  6  1  0
 18 12  1  0
M  END
>  <zinc_id>  (1) 
ZINC000000519450

>  <smiles>  (1) 
CC1=C[C@H](C)[C@@]2(CO)CO[C@@H](c3ccc(O)cc3)[C@@H]1[C@@H]2C

$$$$
