
     RDKit          3D

 19 20  0  0  0  0  0  0  0  0999 V2000
    5.7289    0.9376    0.7446 C   0  0  0  0  0  0  0  0  0  0  0  0
    4.3333    0.5518    0.3828 C   0  0  0  0  0  0  0  0  0  0  0  0
    4.0935   -0.4048   -0.5909 C   0  0  0  0  0  0  0  0  0  0  0  0
    2.7959   -0.7496   -0.9131 C   0  0  0  0  0  0  0  0  0  0  0  0
    1.6989   -0.1793   -0.3030 C   0  0  0  0  0  0  0  0  0  0  0  0
    0.4108   -0.5916   -0.6944 N   0  0  0  0  0  0  0  0  0  0  0  0
   -0.7884   -0.0847   -0.1469 C   0  0  0  0  0  0  0  0  0  0  0  0
   -0.7623    0.8642    0.8239 N   0  0  0  0  0  0  0  0  0  0  0  0
   -1.8680    1.3840    1.3824 C   0  0  0  0  0  0  0  0  0  0  0  0
   -1.7729    2.4320    2.4529 C   0  0  0  0  0  0  0  0  0  0  0  0
   -3.0845    0.9171    0.9333 C   0  0  0  0  0  0  0  0  0  0  0  0
   -3.1352   -0.0549   -0.0605 C   0  0  0  0  0  0  0  0  0  0  0  0
   -4.4468   -0.5759   -0.5628 C   0  0  0  0  0  0  0  0  0  0  0  0
   -1.9865   -0.5732   -0.6185 C   0  0  0  0  0  0  0  0  0  0  0  0
   -2.0614   -1.5937   -1.6615 C   0  0  0  0  0  0  0  0  0  0  0  0
   -3.3090   -2.0795   -2.1292 N   0  0  0  0  0  0  0  0  0  0  0  0
   -1.0329   -2.0882   -2.1922 O   0  0  0  0  0  0  0  0  0  0  0  0
    1.9456    0.7718    0.6650 C   0  0  0  0  0  0  0  0  0  0  0  0
    3.2410    1.1170    0.9875 C   0  0  0  0  0  0  0  0  0  0  0  0
  1  2  1  0
  2  3  2  0
  3  4  1  0
  4  5  2  0
  5  6  1  0
  6  7  1  0
  7  8  2  0
  8  9  1  0
  9 10  1  0
  9 11  2  0
 11 12  1  0
 12 13  1  0
 12 14  2  0
 14 15  1  0
 15 16  1  0
 15 17  2  0
  5 18  1  0
 18 19  2  0
 19  2  1  0
 14  7  1  0
M  END
>  <zinc_id>  (1) 
ZINC000000199651

>  <smiles>  (1) 
Cc1ccc(Nc2nc(C)cc(C)c2C(N)=O)cc1

$$$$
