
     RDKit          3D

 20 22  0  0  0  0  0  0  0  0999 V2000
    4.6893    2.7711    0.2805 C   0  0  0  0  0  0  0  0  0  0  0  0
    4.4833    1.9934   -0.9918 C   0  0  0  0  0  0  0  0  0  0  0  0
    3.3215    1.0875   -0.9448 C   0  0  0  0  0  0  0  0  0  0  0  0
    2.0546    1.4088   -1.3078 C   0  0  0  0  0  0  0  0  0  0  0  0
    1.0216    0.5152   -1.2385 C   0  0  0  0  0  0  0  0  0  0  0  0
    1.1919   -0.7684   -0.7972 C   0  0  0  0  0  0  0  0  0  0  0  0
    0.2330   -1.8089   -0.6666 C   0  0  0  0  0  0  0  0  0  0  0  0
   -0.9581   -1.6752   -0.1627 C   0  0  0  0  0  0  0  0  0  0  0  0
   -1.9779   -2.7459   -0.0190 C   0  0  0  0  0  0  0  0  0  0  0  0
   -1.7924   -3.9217   -0.3991 O   0  0  0  0  0  0  0  0  0  0  0  0
   -3.0869   -2.1228    0.5985 N   0  0  0  0  0  0  0  0  0  0  0  0
   -2.7993   -0.7529    0.8338 C   0  0  0  0  0  0  0  0  0  0  0  0
   -3.5886    0.2091    1.4129 C   0  0  0  0  0  0  0  0  0  0  0  0
   -3.1240    1.4943    1.5593 C   0  0  0  0  0  0  0  0  0  0  0  0
   -1.8413    1.7857    1.1067 C   0  0  0  0  0  0  0  0  0  0  0  0
   -1.3194    3.4524    1.3300 Cl  0  0  0  0  0  0  0  0  0  0  0  0
   -1.0410    0.8394    0.5272 C   0  0  0  0  0  0  0  0  0  0  0  0
   -1.5205   -0.4548    0.3841 C   0  0  0  0  0  0  0  0  0  0  0  0
    2.5050   -1.0958   -0.4228 C   0  0  0  0  0  0  0  0  0  0  0  0
    3.5493   -0.2103   -0.4874 C   0  0  0  0  0  0  0  0  0  0  0  0
  1  2  1  0
  2  3  1  0
  3  4  2  0
  4  5  1  0
  5  6  2  0
  6  7  1  0
  7  8  2  0
  8  9  1  0
  9 10  2  0
  9 11  1  0
 11 12  1  0
 12 13  2  0
 13 14  1  0
 14 15  2  0
 15 16  1  0
 15 17  1  0
 17 18  2  0
  6 19  1  0
 19 20  2  0
 20  3  1  0
 18  8  1  0
 18 12  1  0
M  END
>  <zinc_id>  (1) 
ZINC000000213488

>  <smiles>  (1) 
CCc1ccc(/C=C2/C(=O)Nc3ccc(Cl)cc32)cc1

$$$$
