
     RDKit          3D

 17 17  0  0  0  0  0  0  0  0999 V2000
    6.4897    1.0971    0.3041 C   0  0  0  0  0  0  0  0  0  0  0  0
    5.2819    0.2539   -0.0032 C   0  0  0  0  0  0  0  0  0  0  0  0
    5.5087   -0.9525   -0.8302 C   0  0  0  0  0  0  0  0  0  0  0  0
    4.1617    0.6290    0.4618 N   0  0  0  0  0  0  0  0  0  0  0  0
    3.0286   -0.1599    0.1748 N   0  0  0  0  0  0  0  0  0  0  0  0
    1.7173    0.3559    0.2535 C   0  0  0  0  0  0  0  0  0  0  0  0
    1.5647    1.5517    0.5893 O   0  0  0  0  0  0  0  0  0  0  0  0
    0.5608   -0.5115   -0.0574 C   0  0  0  0  0  0  0  0  0  0  0  0
   -0.6426    0.2399    0.0948 N   0  0  0  0  0  0  0  0  0  0  0  0
   -1.9165   -0.3519   -0.1429 C   0  0  0  0  0  0  0  0  0  0  0  0
   -2.0219   -1.6699   -0.5273 C   0  0  0  0  0  0  0  0  0  0  0  0
   -3.2960   -2.1927   -0.7452 C   0  0  0  0  0  0  0  0  0  0  0  0
   -4.4316   -1.4017   -0.5781 C   0  0  0  0  0  0  0  0  0  0  0  0
   -4.3258   -0.0810   -0.1928 C   0  0  0  0  0  0  0  0  0  0  0  0
   -5.7292    0.9521    0.0297 Cl  0  0  0  0  0  0  0  0  0  0  0  0
   -3.0512    0.4193    0.0186 C   0  0  0  0  0  0  0  0  0  0  0  0
   -2.8985    1.8221    0.4300 C   0  0  0  0  0  0  0  0  0  0  0  0
  1  2  1  0
  2  3  1  0
  2  4  2  3
  4  5  1  0
  5  6  1  0
  6  7  2  0
  6  8  1  0
  8  9  1  0
  9 10  1  0
 10 11  2  0
 11 12  1  0
 12 13  2  0
 13 14  1  0
 14 15  1  0
 14 16  2  0
 16 17  1  0
 16 10  1  0
M  END
>  <zinc_id>  (1) 
ZINC000000586216

>  <smiles>  (1) 
CC(C)=NNC(=O)CNc1cccc(Cl)c1C

$$$$
