
     RDKit          3D

 19 20  0  0  0  0  0  0  0  0999 V2000
   -0.2052    1.4102   -2.8816 C   0  0  0  0  0  0  0  0  0  0  0  0
   -1.0329    0.9891   -1.7222 C   0  0  0  0  0  0  0  0  0  0  0  0
   -2.4170    1.1934   -1.7203 C   0  0  0  0  0  0  0  0  0  0  0  0
   -3.1634    0.7954   -0.6360 C   0  0  0  0  0  0  0  0  0  0  0  0
   -4.5395    0.9675   -0.5678 O   0  0  0  0  0  0  0  0  0  0  0  0
   -2.5449    0.1979    0.4425 C   0  0  0  0  0  0  0  0  0  0  0  0
   -3.3402   -0.2291    1.6043 C   0  0  0  0  0  0  0  0  0  0  0  0
   -2.4478   -0.8552    2.6530 C   0  0  0  0  0  0  0  0  0  0  0  0
   -4.4130   -1.2287    1.2527 C   0  0  0  0  0  0  0  0  0  0  0  0
   -1.1660   -0.0012    0.4310 C   0  0  0  0  0  0  0  0  0  0  0  0
   -0.3953    0.3932   -0.6533 C   0  0  0  0  0  0  0  0  0  0  0  0
    1.0132    0.2077   -0.7028 N   0  0  0  0  0  0  0  0  0  0  0  0
    1.7667   -0.3853    0.3233 C   0  0  0  0  0  0  0  0  0  0  0  0
    1.1735   -0.7831    1.3589 O   0  0  0  0  0  0  0  0  0  0  0  0
    3.2130   -0.5699    0.2598 C   0  0  0  0  0  0  0  0  0  0  0  0
    4.0437   -1.1288    1.1885 C   0  0  0  0  0  0  0  0  0  0  0  0
    5.3158   -1.0776    0.6774 C   0  0  0  0  0  0  0  0  0  0  0  0
    5.1923   -0.4804   -0.5563 C   0  0  0  0  0  0  0  0  0  0  0  0
    3.9471   -0.2045   -0.7510 O   0  0  0  0  0  0  0  0  0  0  0  0
  1  2  1  0
  2  3  2  0
  3  4  1  0
  4  5  1  0
  4  6  2  0
  6  7  1  0
  7  8  1  0
  7  9  1  0
  6 10  1  0
 10 11  2  0
 11 12  1  0
 12 13  1  0
 13 14  2  0
 13 15  1  0
 15 16  2  0
 16 17  1  0
 17 18  2  0
 18 19  1  0
 11  2  1  0
 19 15  1  0
M  END
>  <zinc_id>  (1) 
ZINC000003182193

>  <smiles>  (1) 
Cc1cc(O)c(C(C)C)cc1NC(=O)c1ccco1

$$$$
