
     RDKit          3D

 21 23  0  0  0  0  0  0  0  0999 V2000
    5.4023    0.6518   -1.0036 C   0  0  0  0  0  0  0  0  0  0  0  0
    4.0943   -0.0021   -0.7333 C   0  0  0  0  0  0  0  0  0  0  0  0
    4.0268   -1.3720   -0.6840 C   0  0  0  0  0  0  0  0  0  0  0  0
    2.8332   -2.0008   -0.4367 C   0  0  0  0  0  0  0  0  0  0  0  0
    1.6660   -1.2494   -0.2311 C   0  0  0  0  0  0  0  0  0  0  0  0
    0.4070   -1.6222    0.0226 N   0  0  0  0  0  0  0  0  0  0  0  0
   -0.3529   -0.5189    0.1411 C   0  0  0  0  0  0  0  0  0  0  0  0
   -1.7978   -0.5603    0.4471 C   0  0  0  0  0  0  0  0  0  0  0  0
   -2.5449    0.5422    0.6439 C   0  0  0  0  0  0  0  0  0  0  0  0
   -3.8761    0.4473    0.9540 C   0  0  0  0  0  0  0  0  0  0  0  0
   -4.5277   -0.7725    1.0828 C   0  0  0  0  0  0  0  0  0  0  0  0
   -3.7285   -1.8793    0.8736 C   0  0  0  0  0  0  0  0  0  0  0  0
   -2.3999   -1.7856    0.5641 C   0  0  0  0  0  0  0  0  0  0  0  0
   -1.6757   -2.9494    0.3713 O   0  0  0  0  0  0  0  0  0  0  0  0
    0.4808    0.5504   -0.0507 C   0  0  0  0  0  0  0  0  0  0  0  0
    0.2241    1.9031   -0.0921 N   0  0  0  0  0  0  0  0  0  0  0  0
   -0.8298    2.7840   -0.0789 C   0  0  0  0  0  0  0  0  0  0  0  0
   -1.6323    2.8884   -1.3792 C   0  0  0  0  0  0  0  0  0  0  0  0
   -0.4516    4.1685    0.3992 C   0  0  0  0  0  0  0  0  0  0  0  0
    1.7491    0.0720   -0.2822 N   0  0  0  0  0  0  0  0  0  0  0  0
    2.9336    0.7048   -0.5278 C   0  0  0  0  0  0  0  0  0  0  0  0
  1  2  1  0
  2  3  1  0
  3  4  2  0
  4  5  1  0
  5  6  2  0
  6  7  1  0
  7  8  1  0
  8  9  2  0
  9 10  1  0
 10 11  2  0
 11 12  1  0
 12 13  2  0
 13 14  1  0
  7 15  2  0
 15 16  1  0
 16 17  1  0
 17 18  1  0
 17 19  1  0
 15 20  1  0
 20 21  1  0
 21  2  2  0
 20  5  1  0
 13  8  1  0
M  END
>  <zinc_id>  (1) 
ZINC000000413712

>  <smiles>  (1) 
Cc1ccc2nc(-c3ccccc3O)c(NC(C)C)n2c1

$$$$
