
     RDKit          3D

 20 21  0  0  0  0  0  0  0  0999 V2000
    3.2078   -1.6187    1.8447 C   0  0  0  0  0  0  0  0  0  0  0  0
    3.9871   -1.2079    0.7378 O   0  0  0  0  0  0  0  0  0  0  0  0
    3.3182   -0.5382   -0.2893 C   0  0  0  0  0  0  0  0  0  0  0  0
    4.0165   -0.1012   -1.4141 C   0  0  0  0  0  0  0  0  0  0  0  0
    3.3881    0.5557   -2.4326 C   0  0  0  0  0  0  0  0  0  0  0  0
    2.0141    0.8014   -2.3570 C   0  0  0  0  0  0  0  0  0  0  0  0
    1.2918    0.3843   -1.2609 C   0  0  0  0  0  0  0  0  0  0  0  0
   -0.1075    0.6305   -1.1762 N   0  0  0  0  0  0  0  0  0  0  0  0
   -0.8411    0.1944   -0.0388 C   0  0  0  0  0  0  0  0  0  0  0  0
   -0.2214   -0.4493    0.9574 N   0  0  0  0  0  0  0  0  0  0  0  0
   -0.8647   -0.8859    2.0596 C   0  0  0  0  0  0  0  0  0  0  0  0
   -0.0937   -1.5892    3.1105 C   0  0  0  0  0  0  0  0  0  0  0  0
   -2.2151   -0.6411    2.1274 C   0  0  0  0  0  0  0  0  0  0  0  0
   -2.9052    0.0166    1.1322 C   0  0  0  0  0  0  0  0  0  0  0  0
   -4.3783    0.2472    1.2767 C   0  0  0  0  0  0  0  0  0  0  0  0
   -2.2029    0.4381    0.0359 C   0  0  0  0  0  0  0  0  0  0  0  0
   -2.8746    1.1341   -1.0407 C   0  0  0  0  0  0  0  0  0  0  0  0
   -4.2819    1.3825   -0.9572 N   0  0  0  0  0  0  0  0  0  0  0  0
   -2.2060    1.5217   -2.0579 O   0  0  0  0  0  0  0  0  0  0  0  0
    1.9690   -0.2750   -0.2574 C   0  0  0  0  0  0  0  0  0  0  0  0
  1  2  1  0
  2  3  1  0
  3  4  2  0
  4  5  1  0
  5  6  2  0
  6  7  1  0
  7  8  1  0
  8  9  1  0
  9 10  2  0
 10 11  1  0
 11 12  1  0
 11 13  2  0
 13 14  1  0
 14 15  1  0
 14 16  2  0
 16 17  1  0
 17 18  1  0
 17 19  2  0
  7 20  2  0
 20  3  1  0
 16  9  1  0
M  END
>  <zinc_id>  (1) 
ZINC000000380387

>  <smiles>  (1) 
COc1cccc(Nc2nc(C)cc(C)c2C(N)=O)c1

$$$$
