
     RDKit          3D

 21 22  0  0  0  0  0  0  0  0999 V2000
    3.8195    0.1359   -2.7300 C   0  0  0  0  0  0  0  0  0  0  0  0
    2.6557    0.0950   -1.9588 O   0  0  0  0  0  0  0  0  0  0  0  0
    2.7029    0.0878   -0.5508 C   0  0  0  0  0  0  0  0  0  0  0  0
    3.9356    0.1224    0.0611 C   0  0  0  0  0  0  0  0  0  0  0  0
    4.0191    0.1166    1.4305 C   0  0  0  0  0  0  0  0  0  0  0  0
    2.8542    0.0759    2.1547 C   0  0  0  0  0  0  0  0  0  0  0  0
    2.9562    0.0700    3.6376 C   0  0  0  0  0  0  0  0  0  0  0  0
    1.6082    0.0409    1.5278 C   0  0  0  0  0  0  0  0  0  0  0  0
    1.5159    0.0465    0.1512 C   0  0  0  0  0  0  0  0  0  0  0  0
    0.3083    0.0132   -0.5689 N   0  0  0  0  0  0  0  0  0  0  0  0
   -0.9773   -0.0306    0.0270 C   0  0  0  0  0  0  0  0  0  0  0  0
   -1.1924   -0.0453    1.3386 N   0  0  0  0  0  0  0  0  0  0  0  0
   -2.4435   -0.0876    1.8492 C   0  0  0  0  0  0  0  0  0  0  0  0
   -2.6675   -0.1036    3.3313 C   0  0  0  0  0  0  0  0  0  0  0  0
   -3.5432   -0.1169    1.0215 C   0  0  0  0  0  0  0  0  0  0  0  0
   -3.3559   -0.1028   -0.3441 C   0  0  0  0  0  0  0  0  0  0  0  0
   -4.5351   -0.1340   -1.2719 C   0  0  0  0  0  0  0  0  0  0  0  0
   -2.0597   -0.0592   -0.8372 C   0  0  0  0  0  0  0  0  0  0  0  0
   -1.8781   -0.0446   -2.2882 C   0  0  0  0  0  0  0  0  0  0  0  0
   -2.9883   -0.0741   -3.1720 N   0  0  0  0  0  0  0  0  0  0  0  0
   -0.7345   -0.0056   -2.8086 O   0  0  0  0  0  0  0  0  0  0  0  0
  1  2  1  0
  2  3  1  0
  3  4  2  0
  4  5  1  0
  5  6  2  0
  6  7  1  0
  6  8  1  0
  8  9  2  0
  9 10  1  0
 10 11  1  0
 11 12  2  0
 12 13  1  0
 13 14  1  0
 13 15  2  0
 15 16  1  0
 16 17  1  0
 16 18  2  0
 18 19  1  0
 19 20  1  0
 19 21  2  0
  9  3  1  0
 18 11  1  0
M  END
>  <zinc_id>  (1) 
ZINC000000185159

>  <smiles>  (1) 
COc1ccc(C)cc1Nc1nc(C)cc(C)c1C(N)=O

$$$$
