
     RDKit          3D

 22 25  0  0  0  0  0  0  0  0999 V2000
   -2.8696    0.1636   -2.9316 C   0  0  0  0  0  0  0  0  0  0  0  0
   -2.4842    0.1443   -1.5371 N   0  0  0  0  0  0  0  0  0  0  0  0
   -1.2372    0.0015   -1.1147 C   0  0  0  0  0  0  0  0  0  0  0  0
   -1.2361    0.0289    0.2603 C   0  0  0  0  0  0  0  0  0  0  0  0
   -2.5623    0.1973    0.6628 C   0  0  0  0  0  0  0  0  0  0  0  0
   -3.0534    0.2790    1.9331 C   0  0  0  0  0  0  0  0  0  0  0  0
   -4.4309    0.4457    2.0854 C   0  0  0  0  0  0  0  0  0  0  0  0
   -5.2260    0.5196    0.9502 C   0  0  0  0  0  0  0  0  0  0  0  0
   -4.6965    0.4329   -0.3400 C   0  0  0  0  0  0  0  0  0  0  0  0
   -3.3118    0.2653   -0.4832 C   0  0  0  0  0  0  0  0  0  0  0  0
    0.0077   -0.1097    0.9342 C   0  0  0  0  0  0  0  0  0  0  0  0
    0.0551   -0.7780    1.9943 O   0  0  0  0  0  0  0  0  0  0  0  0
    1.3438    0.5077    0.4687 C   0  0  1  0  0  0  0  0  0  0  0  0
    2.1988   -0.8750    0.4973 C   0  0  0  0  0  0  0  0  0  0  0  0
    3.5219   -0.4767    0.0783 N   0  0  0  0  0  0  0  0  0  0  0  0
    4.4900   -0.0567    0.9254 C   0  0  0  0  0  0  0  0  0  0  0  0
    5.5907    0.2337    0.1731 C   0  0  0  0  0  0  0  0  0  0  0  0
    5.2986   -0.0053   -1.1105 N   0  0  0  0  0  0  0  0  0  0  0  0
    4.0093   -0.4482   -1.1705 C   0  0  0  0  0  0  0  0  0  0  0  0
    3.2920   -0.8226   -2.3446 N   0  0  0  0  0  0  0  0  0  0  0  0
    1.1877    0.5314   -1.1173 C   0  0  0  0  0  0  0  0  0  0  0  0
    0.1121   -0.1785   -1.6830 C   0  0  0  0  0  0  0  0  0  0  0  0
  1  2  1  0
  2  3  1  0
  3  4  2  0
  4  5  1  0
  5  6  2  0
  6  7  1  0
  7  8  2  0
  8  9  1  0
  9 10  2  0
  4 11  1  0
 11 12  2  0
 11 13  1  0
 13 14  1  6
 14 15  1  0
 15 16  1  0
 16 17  2  0
 17 18  1  0
 18 19  2  0
 19 20  1  0
 13 21  1  0
 21 22  1  0
 10  2  1  0
 19 15  1  0
 22  3  1  0
 10  5  1  0
M  END
>  <zinc_id>  (1) 
ZINC000000008170

>  <smiles>  (1) 
Cn1c2c(c3ccccc31)C(=O)[C@@H](Cn1ccnc1N)CC2

$$$$
