
     RDKit          3D

 22 24  0  0  0  0  0  0  0  0999 V2000
   -1.3195    3.0173    0.6343 C   0  0  0  0  0  0  0  0  0  0  0  0
   -2.1435    1.7937    0.4995 C   0  0  0  0  0  0  0  0  0  0  0  0
   -3.4793    1.7675    0.2530 N   0  0  0  0  0  0  0  0  0  0  0  0
   -3.8939    0.4908    0.1945 C   0  0  0  0  0  0  0  0  0  0  0  0
   -5.1395   -0.0780   -0.0278 C   0  0  0  0  0  0  0  0  0  0  0  0
   -5.2439   -1.4521   -0.0278 C   0  0  0  0  0  0  0  0  0  0  0  0
   -4.1670   -2.2772    0.1832 C   0  0  0  0  0  0  0  0  0  0  0  0
   -2.9484   -1.6827    0.4002 C   0  0  0  0  0  0  0  0  0  0  0  0
   -2.7776   -0.3157    0.4124 C   0  0  0  0  0  0  0  0  0  0  0  0
   -1.6894    0.5026    0.6018 C   0  0  0  0  0  0  0  0  0  0  0  0
   -0.3114    0.0888    0.8607 C   0  0  0  0  0  0  0  0  0  0  0  0
    0.5239    0.2414   -0.3655 C   0  0  0  0  0  0  0  0  0  0  0  0
    1.8981   -0.1609   -0.1521 N   0  0  0  0  0  0  0  0  0  0  0  0
    2.4035   -1.4782   -0.3508 C   0  0  0  0  0  0  0  0  0  0  0  0
    1.6926   -2.5345   -0.4165 O   0  0  0  0  0  0  0  0  0  0  0  0
    3.8082   -1.4126   -0.4608 O   0  0  0  0  0  0  0  0  0  0  0  0
    4.1128   -0.0398   -0.6317 C   0  0  0  0  0  0  0  0  0  0  0  0
    5.5004    0.3271   -0.2179 C   0  0  0  0  0  0  0  0  0  0  0  0
    3.8090    0.3684   -2.0740 C   0  0  0  0  0  0  0  0  0  0  0  0
    3.0563    0.5939    0.2856 C   0  0  1  0  0  0  0  0  0  0  0  0
    2.9373    2.0594    0.1206 C   0  0  0  0  0  0  0  0  0  0  0  0
    3.3715    0.1810    1.5846 O   0  0  0  0  0  0  0  0  0  0  0  0
  1  2  1  0
  2  3  1  0
  3  4  1  0
  4  5  2  0
  5  6  1  0
  6  7  2  0
  7  8  1  0
  8  9  2  0
  9 10  1  0
 10 11  1  0
 11 12  1  0
 12 13  1  0
 13 14  1  0
 14 15  2  0
 14 16  1  0
 16 17  1  0
 17 18  1  0
 17 19  1  0
 17 20  1  0
 20 21  1  1
 20 22  1  0
 10  2  2  0
 20 13  1  0
  9  4  1  0
M  END
>  <zinc_id>  (1) 
ZINC000000140314

>  <smiles>  (1) 
Cc1[nH]c2ccccc2c1CCN1C(=O)OC(C)(C)[C@]1(C)O

$$$$
