
     RDKit          3D

 19 21  0  0  0  0  0  0  0  0999 V2000
    0.9147    0.5413    0.4822 O   0  0  0  0  0  0  0  0  0  0  0  0
    1.1321   -0.6629    0.1923 C   0  0  0  0  0  0  0  0  0  0  0  0
    2.4869   -1.2687    0.2917 C   0  0  0  0  0  0  0  0  0  0  0  0
    3.4997   -0.2810    0.7638 C   0  0  0  0  0  0  0  0  0  0  0  0
    3.5844    0.8990   -0.2031 C   0  0  0  0  0  0  0  0  0  0  0  0
    4.9953    1.4290   -0.3084 C   0  0  0  0  0  0  0  0  0  0  0  0
    5.6166    1.3550    1.0857 C   0  0  0  0  0  0  0  0  0  0  0  0
    5.9100   -0.0959    1.4479 C   0  0  0  0  0  0  0  0  0  0  0  0
    4.8496   -0.9474    0.8046 C   0  0  0  0  0  0  0  0  0  0  0  0
    0.0302   -1.4472   -0.2413 N   0  0  0  0  0  0  0  0  0  0  0  0
   -1.2684   -0.8214   -0.3240 C   0  0  0  0  0  0  0  0  0  0  0  0
   -2.4202   -1.3142   -0.6869 N   0  0  0  0  0  0  0  0  0  0  0  0
   -3.4915   -0.5786   -0.6946 C   0  0  0  0  0  0  0  0  0  0  0  0
   -4.7815   -0.9907   -1.0624 C   0  0  0  0  0  0  0  0  0  0  0  0
   -5.8266   -0.1354   -1.0319 C   0  0  0  0  0  0  0  0  0  0  0  0
   -5.7272    1.1734   -0.6507 C   0  0  0  0  0  0  0  0  0  0  0  0
   -4.4563    1.6075   -0.2805 C   0  0  0  0  0  0  0  0  0  0  0  0
   -3.3627    0.7285   -0.3081 C   0  0  0  0  0  0  0  0  0  0  0  0
   -1.6850    0.8100    0.0447 S   0  0  0  0  0  0  0  0  0  0  0  0
  1  2  2  0
  2  3  1  0
  3  4  1  0
  4  5  1  0
  5  6  1  0
  6  7  1  0
  7  8  1  0
  8  9  1  0
  2 10  1  0
 10 11  1  0
 11 12  2  0
 12 13  1  0
 13 14  2  0
 14 15  1  0
 15 16  2  0
 16 17  1  0
 17 18  2  0
 18 19  1  0
  9  4  1  0
 19 11  1  0
 18 13  1  0
M  END
>  <zinc_id>  (1) 
ZINC000000316745

>  <smiles>  (1) 
O=C(CC1CCCCC1)Nc1nc2ccccc2s1

$$$$
