
     RDKit          3D

 20 21  0  0  0  0  0  0  0  0999 V2000
   -4.2713    3.0269    0.0491 C   0  0  0  0  0  0  0  0  0  0  0  0
   -3.6962    1.6748    0.2801 C   0  0  0  0  0  0  0  0  0  0  0  0
   -3.9886    0.9256    1.3845 C   0  0  0  0  0  0  0  0  0  0  0  0
   -3.4109   -0.3316    1.5298 C   0  0  0  0  0  0  0  0  0  0  0  0
   -2.5494   -0.8649    0.6053 C   0  0  0  0  0  0  0  0  0  0  0  0
   -1.8930   -2.4974    0.9098 S   0  0  0  0  0  0  0  0  0  0  0  0
   -0.7658   -3.0093   -0.4186 C   0  0  0  0  0  0  0  0  0  0  0  0
    0.4649   -2.1707   -0.3951 C   0  0  0  0  0  0  0  0  0  0  0  0
    1.5626   -2.7648   -0.1772 O   0  0  0  0  0  0  0  0  0  0  0  0
    0.4994   -0.7772   -0.5949 N   0  0  0  0  0  0  0  0  0  0  0  0
    1.7273   -0.0441   -0.5593 C   0  0  0  0  0  0  0  0  0  0  0  0
    2.9471   -0.6415   -0.3568 C   0  0  0  0  0  0  0  0  0  0  0  0
    4.1057    0.0983   -0.3353 C   0  0  0  0  0  0  0  0  0  0  0  0
    5.4641   -0.4506   -0.1302 C   0  0  0  0  0  0  0  0  0  0  0  0
    4.0144    1.4780   -0.5241 C   0  0  0  0  0  0  0  0  0  0  0  0
    2.7898    2.0649   -0.7252 C   0  0  0  0  0  0  0  0  0  0  0  0
    1.6470    1.3122   -0.7439 C   0  0  0  0  0  0  0  0  0  0  0  0
    0.4294    1.9372   -0.9498 O   0  0  0  0  0  0  0  0  0  0  0  0
   -2.2515   -0.1093   -0.5101 C   0  0  0  0  0  0  0  0  0  0  0  0
   -2.8250    1.1434   -0.6585 C   0  0  0  0  0  0  0  0  0  0  0  0
  1  2  1  0
  2  3  2  0
  3  4  1  0
  4  5  2  0
  5  6  1  0
  6  7  1  0
  7  8  1  0
  8  9  2  0
  8 10  1  0
 10 11  1  0
 11 12  2  0
 12 13  1  0
 13 14  1  0
 13 15  2  0
 15 16  1  0
 16 17  2  0
 17 18  1  0
  5 19  1  0
 19 20  2  0
 20  2  1  0
 17 11  1  0
M  END
>  <zinc_id>  (1) 
ZINC000002879866

>  <smiles>  (1) 
Cc1ccc(SCC(=O)Nc2cc(C)ccc2O)cc1

$$$$
