
     RDKit          3D

 19 21  0  0  0  0  0  0  0  0999 V2000
    6.1956   -0.8768    0.2018 C   0  0  0  0  0  0  0  0  0  0  0  0
    4.7131   -0.7723    0.1455 C   0  0  0  0  0  0  0  0  0  0  0  0
    3.9052   -1.8598   -0.1168 C   0  0  0  0  0  0  0  0  0  0  0  0
    2.5273   -1.7208   -0.1607 C   0  0  0  0  0  0  0  0  0  0  0  0
    1.9084   -0.5070    0.0525 C   0  0  0  0  0  0  0  0  0  0  0  0
    0.4887   -0.4255   -0.0052 N   0  0  0  0  0  0  0  0  0  0  0  0
   -0.2319    0.7637    0.1978 C   0  0  0  0  0  0  0  0  0  0  0  0
    0.4557    1.7851    0.4404 O   0  0  0  0  0  0  0  0  0  0  0  0
   -1.7303    0.8381    0.1344 C   0  0  0  0  0  0  0  0  0  0  0  0
   -2.3658    2.0422    0.3448 C   0  0  0  0  0  0  0  0  0  0  0  0
   -1.7430    3.3191    0.6357 N   0  0  0  0  0  0  0  0  0  0  0  0
   -4.0122    1.6572    0.1808 S   0  0  0  0  0  0  0  0  0  0  0  0
   -3.8809   -0.0057   -0.1488 C   0  0  0  0  0  0  0  0  0  0  0  0
   -2.5422   -0.2234   -0.1228 C   0  0  0  0  0  0  0  0  0  0  0  0
   -2.3211   -1.7122   -0.4125 C   0  0  0  0  0  0  0  0  0  0  0  0
   -3.5621   -2.0342   -1.2385 C   0  0  0  0  0  0  0  0  0  0  0  0
   -4.6426   -1.2848   -0.4475 C   0  0  0  0  0  0  0  0  0  0  0  0
    2.7285    0.5714    0.3136 C   0  0  0  0  0  0  0  0  0  0  0  0
    4.1096    0.4458    0.3604 C   0  0  0  0  0  0  0  0  0  0  0  0
  1  2  1  0
  2  3  2  0
  3  4  1  0
  4  5  2  0
  5  6  1  0
  6  7  1  0
  7  8  2  0
  7  9  1  0
  9 10  2  0
 10 11  1  0
 10 12  1  0
 12 13  1  0
 13 14  2  0
 14 15  1  0
 15 16  1  0
 16 17  1  0
  5 18  1  0
 18 19  2  0
 19  2  1  0
 14  9  1  0
 17 13  1  0
M  END
>  <zinc_id>  (1) 
ZINC000000127200

>  <smiles>  (1) 
Cc1ccc(NC(=O)c2c(N)sc3c2CCC3)cc1

$$$$
