
     RDKit          3D

 20 22  0  0  0  0  0  0  0  0999 V2000
   -3.9018   -0.2226    0.3358 C   0  0  0  0  0  0  0  0  0  0  0  0
   -2.4677    0.1994   -0.1728 C   0  0  0  0  0  0  0  0  0  0  0  0
   -1.5688   -0.7454    0.4753 C   0  0  0  0  0  0  0  0  0  0  0  0
   -2.4225    1.6458    0.5622 C   0  0  2  0  0  0  0  0  0  0  0  0
   -3.7306    2.1755   -0.2741 C   0  0  0  0  0  0  0  0  0  0  0  0
   -3.4561    1.6776   -1.6660 C   0  0  0  0  0  0  0  0  0  0  0  0
   -2.4512    0.5623   -1.5359 C   0  0  2  0  0  0  0  0  0  0  0  0
   -2.4827   -0.4404   -2.6020 C   0  0  0  0  0  0  0  0  0  0  0  0
   -1.0064    1.2355   -1.4829 C   0  0  2  0  0  0  0  0  0  0  0  0
   -0.2386    0.2330   -0.6863 O   0  0  0  0  0  0  0  0  0  0  0  0
    1.0779    0.4204   -0.3986 C   0  0  0  0  0  0  0  0  0  0  0  0
    1.4856    1.5242   -0.8982 O   0  0  0  0  0  0  0  0  0  0  0  0
    1.9702   -0.4328    0.3478 C   0  0  0  0  0  0  0  0  0  0  0  0
    3.2765   -0.0015    0.5014 C   0  0  0  0  0  0  0  0  0  0  0  0
    4.2309   -0.7149    1.1858 C   0  0  0  0  0  0  0  0  0  0  0  0
    3.8797   -1.9102    1.7449 C   0  0  0  0  0  0  0  0  0  0  0  0
    4.8919   -2.5969    2.4319 O   0  0  0  0  0  0  0  0  0  0  0  0
    2.6104   -2.3688    1.6177 C   0  0  0  0  0  0  0  0  0  0  0  0
    1.6537   -1.6226    0.9143 C   0  0  0  0  0  0  0  0  0  0  0  0
   -1.3504    2.3711   -0.4002 C   0  0  0  0  0  0  0  0  0  0  0  0
  1  2  1  0
  2  3  1  0
  2  4  1  0
  4  5  1  6
  5  6  1  0
  6  7  1  0
  7  8  1  6
  7  9  1  0
  9 10  1  6
 10 11  1  0
 11 12  2  0
 11 13  1  0
 13 14  2  0
 14 15  1  0
 15 16  2  0
 16 17  1  0
 16 18  1  0
 18 19  2  0
  9 20  1  0
  7  2  1  0
 19 13  1  0
 20  4  1  0
M  END
>  <zinc_id>  (1) 
ZINC000000073643

>  <smiles>  (1) 
CC1(C)[C@@H]2CC[C@@]1(C)[C@@H](OC(=O)c1ccc(O)cc1)C2

$$$$
