
     RDKit          3D

 19 21  0  0  0  0  0  0  0  0999 V2000
    5.2331   -1.3966   -1.8109 C   0  0  0  0  0  0  0  0  0  0  0  0
    4.6399   -0.3716   -0.9858 N   0  0  0  0  0  0  0  0  0  0  0  0
    5.5091    0.7186   -0.5545 C   0  0  0  0  0  0  0  0  0  0  0  0
    3.2596   -0.4164   -0.6094 C   0  0  0  0  0  0  0  0  0  0  0  0
    2.8325   -1.2175    0.4302 C   0  0  0  0  0  0  0  0  0  0  0  0
    1.5191   -1.2925    0.8435 C   0  0  0  0  0  0  0  0  0  0  0  0
    0.5809   -0.5392    0.2006 C   0  0  0  0  0  0  0  0  0  0  0  0
   -0.8187   -0.5556    0.5708 C   0  0  0  0  0  0  0  0  0  0  0  0
   -1.3342   -1.3385    1.5677 N   0  0  0  0  0  0  0  0  0  0  0  0
   -2.6345   -1.1322    1.6857 N   0  0  0  0  0  0  0  0  0  0  0  0
   -2.9635   -0.2089    0.7564 C   0  0  0  0  0  0  0  0  0  0  0  0
   -1.8492    0.1805    0.0316 C   0  0  0  0  0  0  0  0  0  0  0  0
   -1.6360    1.1146   -1.0675 C   0  0  0  0  0  0  0  0  0  0  0  0
   -2.6422    2.1772   -1.2620 C   0  0  0  0  0  0  0  0  0  0  0  0
   -4.0606    1.7203   -1.3172 C   0  0  0  0  0  0  0  0  0  0  0  0
   -4.6226    1.6439    0.0859 C   0  0  0  0  0  0  0  0  0  0  0  0
   -4.3123    0.2947    0.5839 N   0  0  0  0  0  0  0  0  0  0  0  0
    0.9880    0.2763   -0.8513 C   0  0  0  0  0  0  0  0  0  0  0  0
    2.3115    0.3428   -1.2582 C   0  0  0  0  0  0  0  0  0  0  0  0
  1  2  1  0
  2  3  1  0
  2  4  1  0
  4  5  2  0
  5  6  1  0
  6  7  2  0
  7  8  1  0
  8  9  1  0
  9 10  1  0
 10 11  2  0
 11 12  1  0
 12 13  1  0
 13 14  1  0
 14 15  1  0
 15 16  1  0
 16 17  1  0
  7 18  1  0
 18 19  2  0
 19  4  1  0
 12  8  2  0
 17 11  1  0
M  END
>  <zinc_id>  (1) 
ZINC000003698226

>  <smiles>  (1) 
CN(C)c1ccc(-c2[nH]nc3c2CCCCN3)cc1

$$$$
