
     RDKit          3D

 20 22  0  0  0  0  0  0  0  0999 V2000
   -0.5996   -2.7564    0.6860 C   0  0  0  0  0  0  0  0  0  0  0  0
   -1.4462   -1.6376    0.1868 C   0  0  0  0  0  0  0  0  0  0  0  0
   -2.6353   -1.8722   -0.5123 C   0  0  0  0  0  0  0  0  0  0  0  0
   -3.4334   -0.8532   -0.9828 C   0  0  0  0  0  0  0  0  0  0  0  0
   -4.6178   -1.1131   -1.6792 O   0  0  0  0  0  0  0  0  0  0  0  0
   -3.0096    0.4339   -0.7348 C   0  0  0  0  0  0  0  0  0  0  0  0
   -1.8417    0.6855   -0.0481 C   0  0  0  0  0  0  0  0  0  0  0  0
   -1.3498    2.0619    0.2493 C   0  0  0  0  0  0  0  0  0  0  0  0
   -2.3395    3.0153   -0.4388 C   0  0  0  0  0  0  0  0  0  0  0  0
   -1.4745    2.3698    1.7284 C   0  0  0  0  0  0  0  0  0  0  0  0
   -1.0537   -0.3400    0.4163 C   0  0  0  0  0  0  0  0  0  0  0  0
    0.2475   -0.0531    1.1936 C   0  0  1  0  0  0  0  0  0  0  0  0
    1.0993   -1.0954    0.4535 N   0  0  0  0  0  0  0  0  0  0  0  0
    2.3447   -0.5842    0.1688 C   0  0  0  0  0  0  0  0  0  0  0  0
    3.4868   -1.4066    0.0788 C   0  0  0  0  0  0  0  0  0  0  0  0
    4.7041   -0.8472   -0.1985 C   0  0  0  0  0  0  0  0  0  0  0  0
    4.8363    0.5198   -0.3937 C   0  0  0  0  0  0  0  0  0  0  0  0
    3.7254    1.3174   -0.3060 C   0  0  0  0  0  0  0  0  0  0  0  0
    2.5052    0.7265   -0.0244 C   0  0  0  0  0  0  0  0  0  0  0  0
    0.8518    1.4290    0.1570 S   0  0  0  0  0  0  0  0  0  0  0  0
  1  2  1  0
  2  3  2  0
  3  4  1  0
  4  5  1  0
  4  6  2  0
  6  7  1  0
  7  8  1  0
  8  9  1  0
  8 10  1  0
  7 11  2  0
 12 11  1  6
 12 13  1  0
 13 14  1  0
 14 15  2  0
 15 16  1  0
 16 17  2  0
 17 18  1  0
 18 19  2  0
 19 20  1  0
 11  2  1  0
 20 12  1  0
 19 14  1  0
M  END
>  <zinc_id>  (1) 
ZINC000001670243

>  <smiles>  (1) 
Cc1cc(O)cc(C(C)C)c1[C@H]1Nc2ccccc2S1

$$$$
