
     RDKit          3D

 19 20  0  0  0  0  0  0  0  0999 V2000
    5.3018    1.7440   -0.3787 C   0  0  0  0  0  0  0  0  0  0  0  0
    4.0865    0.8044    0.2478 C   0  0  1  0  0  0  0  0  0  0  0  0
    2.9392    1.5661   -0.6523 C   0  0  0  0  0  0  0  0  0  0  0  0
    1.7485    0.7216   -0.3788 C   0  0  0  0  0  0  0  0  0  0  0  0
    0.5248    1.3743   -0.0899 N   0  0  0  0  0  0  0  0  0  0  0  0
   -0.6585    0.6182   -0.2538 N   0  0  0  0  0  0  0  0  0  0  0  0
   -1.9382    1.0728    0.0491 C   0  0  0  0  0  0  0  0  0  0  0  0
   -2.0886    2.2356    0.5030 O   0  0  0  0  0  0  0  0  0  0  0  0
   -3.1206    0.2143   -0.1531 C   0  0  0  0  0  0  0  0  0  0  0  0
   -3.0097   -1.0634   -0.6563 C   0  0  0  0  0  0  0  0  0  0  0  0
   -4.1332   -1.8436   -0.8338 C   0  0  0  0  0  0  0  0  0  0  0  0
   -5.4031   -1.3946   -0.5227 C   0  0  0  0  0  0  0  0  0  0  0  0
   -5.5139   -0.1145   -0.0185 C   0  0  0  0  0  0  0  0  0  0  0  0
   -4.3833    0.6588    0.1554 C   0  0  0  0  0  0  0  0  0  0  0  0
    1.8776   -0.5777   -0.4161 C   0  0  0  0  0  0  0  0  0  0  0  0
    3.1214   -1.2828   -0.7105 C   0  0  0  0  0  0  0  0  0  0  0  0
    3.3563   -2.3016    0.3865 C   0  0  0  0  0  0  0  0  0  0  0  0
    2.9773   -2.0614   -2.0100 C   0  0  0  0  0  0  0  0  0  0  0  0
    4.3159   -0.3705   -0.8912 C   0  0  0  0  0  0  0  0  0  0  0  0
  2  1  1  6
  2  3  1  0
  3  4  1  0
  4  5  1  0
  5  6  1  0
  6  7  1  0
  7  8  2  0
  7  9  1  0
  9 10  2  0
 10 11  1  0
 11 12  2  0
 12 13  1  0
 13 14  2  0
  4 15  2  0
 15 16  1  0
 16 17  1  0
 16 18  1  0
 16 19  1  0
 19  2  1  0
 14  9  1  0
M  END
>  <zinc_id>  (1) 
ZINC000003239531

>  <smiles>  (1) 
C[C@H]1CC(NNC(=O)c2ccccc2)=CC(C)(C)C1

$$$$
