
     RDKit          3D

 19 21  0  0  0  0  0  0  0  0999 V2000
   -0.5612   -3.2882   -0.3103 N   0  0  0  0  0  0  0  0  0  0  0  0
   -1.3431   -2.1218    0.0553 C   0  0  0  0  0  0  0  0  0  0  0  0
   -2.8918   -2.0424    0.7600 S   0  0  0  0  0  0  0  0  0  0  0  0
   -3.0639   -0.3537    0.8530 C   0  0  0  0  0  0  0  0  0  0  0  0
   -1.8943    0.1143    0.3254 C   0  0  0  0  0  0  0  0  0  0  0  0
   -0.9949   -0.8085   -0.0916 C   0  0  0  0  0  0  0  0  0  0  0  0
    0.3225   -0.4424   -0.6872 C   0  0  0  0  0  0  0  0  0  0  0  0
    1.1286   -1.3160   -1.0613 O   0  0  0  0  0  0  0  0  0  0  0  0
    0.7210    0.9058   -0.8567 N   0  0  0  0  0  0  0  0  0  0  0  0
    1.9608    1.3415   -1.4164 C   0  0  0  0  0  0  0  0  0  0  0  0
    3.1179    0.8326   -0.6195 C   0  0  0  0  0  0  0  0  0  0  0  0
    3.7173   -0.3683   -0.9082 C   0  0  0  0  0  0  0  0  0  0  0  0
    4.7255   -0.5075    0.0138 C   0  0  0  0  0  0  0  0  0  0  0  0
    4.6752    0.6100    0.7989 C   0  0  0  0  0  0  0  0  0  0  0  0
    3.7171    1.3704    0.3929 O   0  0  0  0  0  0  0  0  0  0  0  0
   -1.8150    1.6393    0.3026 C   0  0  0  0  0  0  0  0  0  0  0  0
   -3.0792    2.0889   -0.3887 C   0  0  0  0  0  0  0  0  0  0  0  0
   -4.3169    1.7380    0.3743 C   0  0  0  0  0  0  0  0  0  0  0  0
   -4.1256    0.6080    1.3440 C   0  0  0  0  0  0  0  0  0  0  0  0
  1  2  1  0
  2  3  1  0
  3  4  1  0
  4  5  2  0
  5  6  1  0
  6  7  1  0
  7  8  2  0
  7  9  1  0
  9 10  1  0
 10 11  1  0
 11 12  2  0
 12 13  1  0
 13 14  2  0
 14 15  1  0
  5 16  1  0
 16 17  1  0
 17 18  1  0
 18 19  1  0
  6  2  2  0
 15 11  1  0
 19  4  1  0
M  END
>  <zinc_id>  (1) 
ZINC000002581494

>  <smiles>  (1) 
Nc1sc2c(c1C(=O)NCc1ccco1)CCCC2

$$$$
