
     RDKit          3D

 20 21  0  0  0  0  0  0  0  0999 V2000
   -1.4463    1.2953   -0.6332 C   0  0  0  0  0  0  0  0  0  0  0  0
   -1.7924   -0.1249   -0.3863 C   0  0  0  0  0  0  0  0  0  0  0  0
   -0.8197   -1.0975   -0.4237 C   0  0  0  0  0  0  0  0  0  0  0  0
    0.5712   -0.7889   -0.6944 C   0  0  0  0  0  0  0  0  0  0  0  0
    1.4273   -1.7102   -0.7528 O   0  0  0  0  0  0  0  0  0  0  0  0
    1.0494    0.5335   -0.9054 N   0  0  0  0  0  0  0  0  0  0  0  0
    2.4757    0.7858   -1.1748 C   0  0  0  0  0  0  0  0  0  0  0  0
    2.7844    2.1486   -0.7536 C   0  0  0  0  0  0  0  0  0  0  0  0
    3.9183    2.4367    0.1065 C   0  0  0  0  0  0  0  0  0  0  0  0
    4.8495    1.3481    0.4668 C   0  0  0  0  0  0  0  0  0  0  0  0
    4.2808    0.4451    1.5692 C   0  0  0  0  0  0  0  0  0  0  0  0
    3.0116   -0.1738    1.0214 C   0  0  0  0  0  0  0  0  0  0  0  0
    3.2211   -0.3160   -0.4858 C   0  0  0  0  0  0  0  0  0  0  0  0
   -1.2087   -2.3978   -0.1868 C   0  0  0  0  0  0  0  0  0  0  0  0
   -2.5030   -2.7366    0.0771 C   0  0  0  0  0  0  0  0  0  0  0  0
   -3.4865   -1.7631    0.1164 C   0  0  0  0  0  0  0  0  0  0  0  0
   -3.1104   -0.4543   -0.1192 C   0  0  0  0  0  0  0  0  0  0  0  0
   -4.1334    0.5380   -0.0779 N   0  0  0  0  0  4  0  0  0  0  0  0
   -5.1363    0.3609    0.6171 O   0  0  0  0  0  0  0  0  0  0  0  0
   -3.9525    1.6710   -0.8301 O   0  0  0  0  0  1  0  0  0  0  0  0
  1  2  1  0
  2  3  2  0
  3  4  1  0
  4  5  2  0
  4  6  1  0
  6  7  1  0
  7  8  1  0
  8  9  1  0
  9 10  1  0
 10 11  1  0
 11 12  1  0
 12 13  1  0
  3 14  1  0
 14 15  2  0
 15 16  1  0
 16 17  2  0
 17 18  1  0
 18 19  2  0
 18 20  1  0
 17  2  1  0
 13  7  1  0
M  CHG  2  18   1  20  -1
M  END
>  <zinc_id>  (1) 
ZINC000000209577

>  <smiles>  (1) 
Cc1c(C(=O)NC2CCCCCC2)cccc1[N+](=O)[O-]

$$$$
