
     RDKit          3D

 20 23  0  0  0  0  0  0  0  0999 V2000
   -5.5293    0.4555   -0.1745 C   0  0  0  0  0  0  0  0  0  0  0  0
   -4.7268    1.5648   -0.3223 C   0  0  0  0  0  0  0  0  0  0  0  0
   -3.3485    1.4134   -0.2281 C   0  0  0  0  0  0  0  0  0  0  0  0
   -2.7551    0.2044    0.0059 C   0  0  0  0  0  0  0  0  0  0  0  0
   -1.4510   -0.2177    0.1422 C   0  0  0  0  0  0  0  0  0  0  0  0
   -0.2159    0.6091    0.0638 C   0  0  0  0  0  0  0  0  0  0  0  0
   -0.3317    1.9612   -0.1708 C   0  0  0  0  0  0  0  0  0  0  0  0
    1.2972    2.4656   -0.1751 S   0  0  0  0  0  0  0  0  0  0  0  0
    2.0220    0.9508    0.1173 C   0  0  0  0  0  0  0  0  0  0  0  0
    3.4316    0.6312    0.2415 N   0  0  0  0  0  0  0  0  0  0  0  0
    3.8925   -0.6930    0.4885 C   0  0  0  0  0  0  0  0  0  0  0  0
    5.4027   -0.6593    0.5580 C   0  0  0  0  0  0  0  0  0  0  0  0
    5.8004   -0.5978   -0.9120 C   0  0  0  0  0  0  0  0  0  0  0  0
    4.7524   -1.3669   -1.6651 C   0  0  0  0  0  0  0  0  0  0  0  0
    3.6319   -1.6457   -0.6694 C   0  0  0  0  0  0  0  0  0  0  0  0
    0.9865    0.1383    0.2033 N   0  0  0  0  0  0  0  0  0  0  0  0
   -1.5083   -1.5638    0.3671 C   0  0  0  0  0  0  0  0  0  0  0  0
   -2.8169   -1.9652    0.3699 N   0  0  0  0  0  0  0  0  0  0  0  0
   -3.5839   -0.8885    0.1496 C   0  0  0  0  0  0  0  0  0  0  0  0
   -4.9498   -0.7965    0.0661 C   0  0  0  0  0  0  0  0  0  0  0  0
  1  2  2  0
  2  3  1  0
  3  4  2  0
  4  5  1  0
  5  6  1  0
  6  7  2  0
  7  8  1  0
  8  9  1  0
  9 10  1  0
 10 11  1  0
 11 12  1  0
 12 13  1  0
 13 14  1  0
 14 15  1  0
  9 16  2  0
  5 17  2  0
 17 18  1  0
 18 19  1  0
 19 20  2  0
 20  1  1  0
 19  4  1  0
 16  6  1  0
 15 11  1  0
M  END
>  <zinc_id>  (1) 
ZINC000002628036

>  <smiles>  (1) 
c1ccc2c(-c3csc(NC4CCCC4)n3)c[nH]c2c1

$$$$
