
     RDKit          3D

 22 24  0  0  0  0  0  0  0  0999 V2000
    1.5741   -3.0768    1.5770 C   0  0  0  0  0  0  0  0  0  0  0  0
    2.1108   -1.8649    0.8722 C   0  0  0  0  0  0  0  0  0  0  0  0
    3.3670   -1.4045    0.9035 N   0  0  0  0  0  0  0  0  0  0  0  0
    3.4612   -0.2989    0.1469 C   0  0  0  0  0  0  0  0  0  0  0  0
    4.5558    0.5100   -0.1333 C   0  0  0  0  0  0  0  0  0  0  0  0
    4.4192    1.5901   -0.9574 C   0  0  0  0  0  0  0  0  0  0  0  0
    3.1962    1.8714   -1.5063 C   0  0  0  0  0  0  0  0  0  0  0  0
    2.1258    1.0651   -1.2202 C   0  0  0  0  0  0  0  0  0  0  0  0
    2.2305   -0.0156   -0.4038 C   0  0  0  0  0  0  0  0  0  0  0  0
    1.3694   -0.9899    0.0421 C   0  0  0  0  0  0  0  0  0  0  0  0
    0.0113   -1.2099   -0.2545 C   0  0  0  0  0  0  0  0  0  0  0  0
   -1.0854   -0.5251   -0.1012 C   0  0  0  0  0  0  0  0  0  0  0  0
   -1.1004    0.7958    0.5074 C   0  0  0  0  0  0  0  0  0  0  0  0
   -0.0365    1.3488    0.9623 O   0  0  0  0  0  0  0  0  0  0  0  0
   -2.3413    1.4857    0.5995 N   0  0  0  0  0  0  0  0  0  0  0  0
   -2.3417    2.8096    1.2107 C   0  0  0  0  0  0  0  0  0  0  0  0
   -3.5424    0.9129    0.1157 C   0  0  0  0  0  0  0  0  0  0  0  0
   -4.9830    1.7155    0.2231 S   0  0  0  0  0  0  0  0  0  0  0  0
   -3.5328   -0.3819   -0.4804 N   0  0  0  0  0  0  0  0  0  0  0  0
   -4.8012   -0.9328   -0.9656 C   0  0  0  0  0  0  0  0  0  0  0  0
   -2.3539   -1.1299   -0.6113 C   0  0  0  0  0  0  0  0  0  0  0  0
   -2.3025   -2.2748   -1.1306 O   0  0  0  0  0  0  0  0  0  0  0  0
  1  2  1  0
  2  3  1  0
  3  4  1  0
  4  5  2  0
  5  6  1  0
  6  7  2  0
  7  8  1  0
  8  9  2  0
  9 10  1  0
 10 11  1  0
 11 12  2  3
 12 13  1  0
 13 14  2  0
 13 15  1  0
 15 16  1  0
 15 17  1  0
 17 18  2  0
 17 19  1  0
 19 20  1  0
 19 21  1  0
 21 22  2  0
 10  2  2  0
 21 12  1  0
  9  4  1  0
M  END
>  <zinc_id>  (1) 
ZINC000000331931

>  <smiles>  (1) 
Cc1[nH]c2ccccc2c1C=C1C(=O)N(C)C(=S)N(C)C1=O

$$$$
