
     RDKit          3D

 21 22  0  0  0  0  0  0  0  0999 V2000
    2.6548    3.1278   -0.3849 C   0  0  0  0  0  0  0  0  0  0  0  0
    3.2139    2.1315   -1.3643 C   0  0  0  0  0  0  0  0  0  0  0  0
    3.7176    0.9449   -0.6267 C   0  0  0  0  0  0  0  0  0  0  0  0
    5.0620    0.7346   -0.4239 C   0  0  0  0  0  0  0  0  0  0  0  0
    5.5395   -0.3614    0.2581 C   0  0  0  0  0  0  0  0  0  0  0  0
    4.6467   -1.2835    0.7576 C   0  0  0  0  0  0  0  0  0  0  0  0
    3.3046   -1.0777    0.5575 C   0  0  0  0  0  0  0  0  0  0  0  0
    2.8422    0.0282   -0.1295 C   0  0  0  0  0  0  0  0  0  0  0  0
    1.4185    0.1848   -0.3046 N   0  0  0  0  0  0  0  0  0  0  0  0
    0.5115   -0.7751    0.2177 C   0  0  0  0  0  0  0  0  0  0  0  0
    0.9963   -1.7584    0.8338 O   0  0  0  0  0  0  0  0  0  0  0  0
   -0.9290   -0.6406    0.0546 C   0  0  0  0  0  0  0  0  0  0  0  0
   -1.7925   -1.5794    0.5729 C   0  0  0  0  0  0  0  0  0  0  0  0
   -3.1713   -1.4618    0.4242 C   0  0  0  0  0  0  0  0  0  0  0  0
   -3.7116   -0.3957   -0.2500 C   0  0  0  0  0  0  0  0  0  0  0  0
   -5.1093   -0.2262   -0.4309 N   0  0  0  0  0  4  0  0  0  0  0  0
   -5.8914   -0.7192    0.4117 O   0  0  0  0  0  0  0  0  0  0  0  0
   -5.5600    0.4727   -1.5236 O   0  0  0  0  0  1  0  0  0  0  0  0
   -2.8400    0.5370   -0.7640 C   0  0  0  0  0  0  0  0  0  0  0  0
   -3.4264    1.6886   -1.4928 C   0  0  0  0  0  0  0  0  0  0  0  0
   -1.4761    0.4288   -0.6219 C   0  0  0  0  0  0  0  0  0  0  0  0
  1  2  1  0
  2  3  1  0
  3  4  2  0
  4  5  1  0
  5  6  2  0
  6  7  1  0
  7  8  2  0
  8  9  1  0
  9 10  1  0
 10 11  2  0
 10 12  1  0
 12 13  2  0
 13 14  1  0
 14 15  2  0
 15 16  1  0
 16 17  2  0
 16 18  1  0
 15 19  1  0
 19 20  1  0
 19 21  2  0
  8  3  1  0
 21 12  1  0
M  CHG  2  16   1  18  -1
M  END
>  <zinc_id>  (1) 
ZINC000000311467

>  <smiles>  (1) 
CCc1ccccc1NC(=O)c1ccc([N+](=O)[O-])c(C)c1

$$$$
