
     RDKit          3D

 20 22  0  0  0  0  0  0  0  0999 V2000
   -5.6171   -1.9080    0.5796 C   0  0  0  0  0  0  0  0  0  0  0  0
   -4.8200   -0.7058    1.0062 C   0  0  0  0  0  0  0  0  0  0  0  0
   -5.5062    0.5854    0.5867 C   0  0  0  0  0  0  0  0  0  0  0  0
   -3.3935   -0.7692    0.4765 C   0  0  0  0  0  0  0  0  0  0  0  0
   -2.6869    0.4883    0.9666 C   0  0  0  0  0  0  0  0  0  0  0  0
   -1.3193    0.4567    0.4758 N   0  0  0  0  0  0  0  0  0  0  0  0
   -1.0422    1.0110   -0.7178 C   0  0  0  0  0  0  0  0  0  0  0  0
   -2.1896    1.7251   -1.6481 S   0  0  0  0  0  0  0  0  0  0  0  0
    0.2470    0.9681   -1.1548 N   0  0  0  0  0  0  0  0  0  0  0  0
    1.2062    0.3994   -0.4324 C   0  0  0  0  0  0  0  0  0  0  0  0
    0.9102   -0.1649    0.7885 C   0  0  0  0  0  0  0  0  0  0  0  0
    2.0047   -0.6480    1.2892 O   0  0  0  0  0  0  0  0  0  0  0  0
    3.0145   -0.4467    0.4885 C   0  0  0  0  0  0  0  0  0  0  0  0
    4.3402   -0.7846    0.6124 C   0  0  0  0  0  0  0  0  0  0  0  0
    5.1786   -0.4354   -0.4079 C   0  0  0  0  0  0  0  0  0  0  0  0
    4.7580    0.2298   -1.5362 C   0  0  0  0  0  0  0  0  0  0  0  0
    3.4264    0.5567   -1.6364 C   0  0  0  0  0  0  0  0  0  0  0  0
    2.5726    0.2182   -0.6308 C   0  0  0  0  0  0  0  0  0  0  0  0
   -0.4061   -0.1330    1.2578 C   0  0  0  0  0  0  0  0  0  0  0  0
   -0.6773   -0.6431    2.3630 O   0  0  0  0  0  0  0  0  0  0  0  0
  1  2  1  0
  2  3  1  0
  2  4  1  0
  4  5  1  0
  5  6  1  0
  6  7  1  0
  7  8  2  0
  7  9  1  0
  9 10  1  0
 10 11  2  0
 11 12  1  0
 12 13  1  0
 13 14  2  0
 14 15  1  0
 15 16  2  0
 16 17  1  0
 17 18  2  0
 11 19  1  0
 19 20  2  0
 19  6  1  0
 18 10  1  0
 18 13  1  0
M  END
>  <zinc_id>  (1) 
ZINC000004370986

>  <smiles>  (1) 
CC(C)CCn1c(=S)[nH]c2c(oc3ccccc32)c1=O

$$$$
