
     RDKit          3D

 20 21  0  0  0  0  0  0  0  0999 V2000
    5.3764    2.4321   -0.4627 C   0  0  0  0  0  0  0  0  0  0  0  0
    4.8549    1.1323   -0.0605 N   0  0  0  0  0  0  0  0  0  0  0  0
    3.4378    0.8872   -0.0441 C   0  0  0  0  0  0  0  0  0  0  0  0
    2.7343    1.8314   -0.3851 O   0  0  0  0  0  0  0  0  0  0  0  0
    2.9736   -0.4342    0.3678 C   0  0  0  0  0  0  0  0  0  0  0  0
    3.8661   -1.3980    0.7237 C   0  0  0  0  0  0  0  0  0  0  0  0
    3.4437   -2.6016    1.0989 C   0  0  0  0  0  0  0  0  0  0  0  0
    1.7724   -2.4534    0.9750 S   0  0  0  0  0  0  0  0  0  0  0  0
    1.6595   -0.7846    0.4233 C   0  0  0  0  0  0  0  0  0  0  0  0
    0.4098   -0.3129    0.2126 N   0  0  0  0  0  0  0  0  0  0  0  0
   -0.4251    0.6444   -0.1386 C   0  0  0  0  0  0  0  0  0  0  0  0
    0.0256    1.7563   -0.4823 O   0  0  0  0  0  0  0  0  0  0  0  0
   -1.8936    0.4246   -0.1328 C   0  0  0  0  0  0  0  0  0  0  0  0
   -2.7064    1.4671   -0.5107 C   0  0  0  0  0  0  0  0  0  0  0  0
   -4.0794    1.3463   -0.5330 C   0  0  0  0  0  0  0  0  0  0  0  0
   -4.6416    0.1230   -0.1578 C   0  0  0  0  0  0  0  0  0  0  0  0
   -6.1072   -0.1025   -0.1500 C   0  0  0  0  0  0  0  0  0  0  0  0
   -3.8392   -0.9401    0.2264 C   0  0  0  0  0  0  0  0  0  0  0  0
   -4.3862   -2.2538    0.6319 C   0  0  0  0  0  0  0  0  0  0  0  0
   -2.4753   -0.7636    0.2300 C   0  0  0  0  0  0  0  0  0  0  0  0
  1  2  1  0
  2  3  1  0
  3  4  2  0
  3  5  1  0
  5  6  1  0
  6  7  2  0
  7  8  1  0
  8  9  1  0
  9 10  1  0
 10 11  1  0
 11 12  2  0
 11 13  1  0
 13 14  2  0
 14 15  1  0
 15 16  2  0
 16 17  1  0
 16 18  1  0
 18 19  1  0
 18 20  2  0
  9  5  2  0
 20 13  1  0
M  END
>  <zinc_id>  (1) 
ZINC000004275810

>  <smiles>  (1) 
CNC(=O)c1ccsc1NC(=O)c1ccc(C)c(C)c1

$$$$
