
     RDKit          3D

 21 23  0  0  0  0  0  0  0  0999 V2000
   -3.3679    3.1161   -0.1923 C   0  0  0  0  0  0  0  0  0  0  0  0
   -2.4866    2.0939    0.2250 O   0  0  0  0  0  0  0  0  0  0  0  0
   -2.5196    0.8534   -0.3948 C   0  0  0  0  0  0  0  0  0  0  0  0
   -3.4006    0.5966   -1.4158 C   0  0  0  0  0  0  0  0  0  0  0  0
   -3.4387   -0.6245   -2.0312 C   0  0  0  0  0  0  0  0  0  0  0  0
   -2.5632   -1.5858   -1.5910 C   0  0  0  0  0  0  0  0  0  0  0  0
   -1.6674   -1.3625   -0.5707 C   0  0  0  0  0  0  0  0  0  0  0  0
   -1.6321   -0.1404    0.0423 C   0  0  0  0  0  0  0  0  0  0  0  0
   -0.7826    0.1698    1.1483 C   0  0  0  0  0  0  0  0  0  0  0  0
   -1.3582    0.7362    2.1496 O   0  0  0  0  0  0  0  0  0  0  0  0
    0.6471   -0.0911    1.2450 C   0  0  0  0  0  0  0  0  0  0  0  0
    1.3109    0.2034    2.4369 C   0  0  0  0  0  0  0  0  0  0  0  0
    0.7854    0.7287    3.6703 N   0  0  0  0  0  0  0  0  0  0  0  0
    2.9288   -0.2044    2.1200 S   0  0  0  0  0  0  0  0  0  0  0  0
    2.7619   -0.7336    0.5160 C   0  0  0  0  0  0  0  0  0  0  0  0
    1.4211   -0.5752    0.2631 C   0  0  0  0  0  0  0  0  0  0  0  0
    0.9030   -0.9225   -1.0997 C   0  0  0  0  0  0  0  0  0  0  0  0
    1.5983   -0.0683   -2.1211 C   0  0  0  0  0  0  0  0  0  0  0  0
    2.9364   -0.6369   -2.5325 C   0  0  0  0  0  0  0  0  0  0  0  0
    4.0306   -0.3164   -1.5414 C   0  0  0  0  0  0  0  0  0  0  0  0
    3.8933   -1.2365   -0.3261 C   0  0  0  0  0  0  0  0  0  0  0  0
  1  2  1  0
  2  3  1  0
  3  4  2  0
  4  5  1  0
  5  6  2  0
  6  7  1  0
  7  8  2  0
  8  9  1  0
  9 10  2  0
  9 11  1  0
 11 12  2  0
 12 13  1  0
 12 14  1  0
 14 15  1  0
 15 16  2  0
 16 17  1  0
 17 18  1  0
 18 19  1  0
 19 20  1  0
 20 21  1  0
  8  3  1  0
 16 11  1  0
 21 15  1  0
M  END
>  <zinc_id>  (1) 
ZINC000000416658

>  <smiles>  (1) 
COc1ccccc1C(=O)c1c(N)sc2c1CCCCC2

$$$$
