
     RDKit          3D

 18 19  0  0  0  0  0  0  0  0999 V2000
    1.6350   -2.0064   -1.0758 S   0  0  0  0  0  0  0  0  0  0  0  0
    0.8060   -0.7635   -0.4244 C   0  0  0  0  0  0  0  0  0  0  0  0
   -0.6131   -0.7728   -0.5056 N   0  0  0  0  0  0  0  0  0  0  0  0
   -1.3492    0.2918    0.0509 N   0  0  0  0  0  0  0  0  0  0  0  0
   -2.6317    0.2912    0.0579 C   0  0  0  0  0  0  0  0  0  0  0  0
   -3.2442   -0.9042   -0.5588 C   0  0  0  0  0  0  0  0  0  0  0  0
   -3.9977   -1.6448    0.5219 C   0  0  0  0  0  0  0  0  0  0  0  0
   -4.4753   -0.6994    1.6044 C   0  0  0  0  0  0  0  0  0  0  0  0
   -5.4641    0.2557    0.9497 C   0  0  0  0  0  0  0  0  0  0  0  0
   -4.7592    1.5027    0.4565 C   0  0  0  0  0  0  0  0  0  0  0  0
   -3.2813    1.4461    0.6605 C   0  0  0  0  0  0  0  0  0  0  0  0
    1.5103    0.3034    0.2106 N   0  0  0  0  0  0  0  0  0  0  0  0
    2.9165    0.3407    0.3067 C   0  0  0  0  0  0  0  0  0  0  0  0
    3.4972    1.4149    0.9394 C   0  0  0  0  0  0  0  0  0  0  0  0
    4.8558    1.5257    1.0741 C   0  0  0  0  0  0  0  0  0  0  0  0
    5.6959    0.5731    0.5855 C   0  0  0  0  0  0  0  0  0  0  0  0
    5.1414   -0.5251   -0.0592 C   0  0  0  0  0  0  0  0  0  0  0  0
    3.7576   -0.6292   -0.1915 C   0  0  0  0  0  0  0  0  0  0  0  0
  1  2  2  0
  2  3  1  0
  3  4  1  0
  4  5  2  3
  5  6  1  0
  6  7  1  0
  7  8  1  0
  8  9  1  0
  9 10  1  0
 10 11  1  0
  2 12  1  0
 12 13  1  0
 13 14  2  0
 14 15  1  0
 15 16  2  0
 16 17  1  0
 17 18  2  0
 11  5  1  0
 18 13  1  0
M  END
>  <zinc_id>  (1) 
ZINC000000167789

>  <smiles>  (1) 
S=C(NN=C1CCCCCC1)Nc1ccccc1

$$$$
