
     RDKit          3D

 21 23  0  0  0  0  0  0  0  0999 V2000
    2.5344    0.9981   -0.8071 O   0  0  0  0  0  0  0  0  0  0  0  0
    2.5215    0.0829    0.0652 C   0  0  0  0  0  0  0  0  0  0  0  0
    3.7787   -0.4676    0.6382 C   0  0  0  0  0  0  0  0  0  0  0  0
    4.9377    0.2584   -0.0107 C   0  0  0  0  0  0  0  0  0  0  0  0
    6.3047   -0.1690    0.4493 C   0  0  0  0  0  0  0  0  0  0  0  0
    6.6740   -0.3396   -1.0298 C   0  0  0  0  0  0  0  0  0  0  0  0
    5.1909   -0.3756   -1.3849 C   0  0  0  0  0  0  0  0  0  0  0  0
    1.2383   -0.3834    0.4607 N   0  0  0  0  0  0  0  0  0  0  0  0
    0.0330    0.1442   -0.0885 C   0  0  0  0  0  0  0  0  0  0  0  0
    0.0178    1.1425   -1.0404 C   0  0  0  0  0  0  0  0  0  0  0  0
   -1.1104    1.6723   -1.5884 C   0  0  0  0  0  0  0  0  0  0  0  0
   -2.3240    1.1772   -1.1630 C   0  0  0  0  0  0  0  0  0  0  0  0
   -2.3735    0.1809   -0.2155 C   0  0  0  0  0  0  0  0  0  0  0  0
   -3.5971   -0.3111    0.2065 C   0  0  0  0  0  0  0  0  0  0  0  0
   -4.8021    0.2134   -0.3395 N   0  0  0  0  0  4  0  0  0  0  0  0
   -5.7879   -0.5261   -0.3648 O   0  0  0  0  0  0  0  0  0  0  0  0
   -4.8584    1.5018   -0.8207 O   0  0  0  0  0  1  0  0  0  0  0  0
   -3.5698   -1.3072    1.1568 C   0  0  0  0  0  0  0  0  0  0  0  0
   -2.4127   -1.8275    1.6968 C   0  0  0  0  0  0  0  0  0  0  0  0
   -1.2040   -1.3254    1.2646 C   0  0  0  0  0  0  0  0  0  0  0  0
   -1.1911   -0.3392    0.3252 C   0  0  0  0  0  0  0  0  0  0  0  0
  1  2  2  0
  2  3  1  0
  3  4  1  0
  4  5  1  0
  5  6  1  0
  6  7  1  0
  2  8  1  0
  8  9  1  0
  9 10  2  0
 10 11  1  0
 11 12  2  0
 12 13  1  0
 13 14  2  0
 14 15  1  0
 15 16  2  0
 15 17  1  0
 14 18  1  0
 18 19  2  0
 19 20  1  0
 20 21  2  0
  7  4  1  0
 21  9  1  0
 21 13  1  0
M  CHG  2  15   1  17  -1
M  END
>  <zinc_id>  (1) 
ZINC000004380742

>  <smiles>  (1) 
O=C(CC1CCC1)Nc1cccc2c([N+](=O)[O-])cccc12

$$$$
