
     RDKit          3D

 20 23  0  0  0  0  0  0  0  0999 V2000
   -0.7556    0.4975    2.4111 O   0  0  0  0  0  0  0  0  0  0  0  0
   -0.3437    0.1740    1.2773 C   0  0  0  0  0  0  0  0  0  0  0  0
    1.0433   -0.0276    1.1349 N   0  0  0  0  0  0  0  0  0  0  0  0
    1.4056   -1.2574    0.1706 C   0  0  2  0  0  0  0  0  0  0  0  0
    2.9302   -0.7415   -0.1051 C   0  0  0  0  0  0  0  0  0  0  0  0
    3.1334    0.5486   -0.3959 C   0  0  0  0  0  0  0  0  0  0  0  0
    4.4289    0.9635   -0.6274 C   0  0  0  0  0  0  0  0  0  0  0  0
    5.4309    0.0241   -0.5446 C   0  0  0  0  0  0  0  0  0  0  0  0
    5.1655   -1.2578   -0.2485 N   0  0  0  0  0  0  0  0  0  0  0  0
    3.9002   -1.6871   -0.0174 C   0  0  0  0  0  0  0  0  0  0  0  0
    0.7862   -0.5402   -1.1179 N   0  0  0  0  0  0  0  0  0  0  0  0
   -0.6175   -0.3493   -1.0256 C   0  0  0  0  0  0  0  0  0  0  0  0
   -1.9130   -0.4584   -2.1636 S   0  0  0  0  0  0  0  0  0  0  0  0
   -3.2085   -0.0438   -1.1111 C   0  0  0  0  0  0  0  0  0  0  0  0
   -2.5826    0.1602    0.0730 C   0  0  0  0  0  0  0  0  0  0  0  0
   -1.2327   -0.0002    0.1123 C   0  0  0  0  0  0  0  0  0  0  0  0
   -3.5800    0.5434    1.1530 C   0  0  0  0  0  0  0  0  0  0  0  0
   -4.2454    1.8160    0.6218 C   0  0  0  0  0  0  0  0  0  0  0  0
   -5.0430    1.5085   -0.6190 C   0  0  0  0  0  0  0  0  0  0  0  0
   -4.7021    0.1274   -1.1821 C   0  0  0  0  0  0  0  0  0  0  0  0
  1  2  2  0
  2  3  1  0
  3  4  1  0
  4  5  1  6
  5  6  2  0
  6  7  1  0
  7  8  2  0
  8  9  1  0
  9 10  2  0
  4 11  1  0
 11 12  1  0
 12 13  1  0
 13 14  1  0
 14 15  2  0
 15 16  1  0
 15 17  1  0
 17 18  1  0
 18 19  1  0
 19 20  1  0
 16  2  1  0
 10  5  1  0
 16 12  2  0
 20 14  1  0
M  END
>  <zinc_id>  (1) 
ZINC000000565683

>  <smiles>  (1) 
O=C1N[C@H](c2cccnc2)Nc2sc3c(c21)CCCC3

$$$$
