
     RDKit          3D

 22 24  0  0  0  0  0  0  0  0999 V2000
   -5.4778    0.7696    0.9702 C   0  0  0  0  0  0  0  0  0  0  0  0
   -4.4036    0.3440    0.0346 C   0  0  0  0  0  0  0  0  0  0  0  0
   -4.6216    0.4863   -1.3230 C   0  0  0  0  0  0  0  0  0  0  0  0
   -5.8157    1.0169   -1.8032 O   0  0  0  0  0  0  0  0  0  0  0  0
   -3.6034    0.0797   -2.1738 C   0  0  0  0  0  0  0  0  0  0  0  0
   -2.4238   -0.4437   -1.7016 C   0  0  0  0  0  0  0  0  0  0  0  0
   -2.1921   -0.5917   -0.3283 C   0  0  0  0  0  0  0  0  0  0  0  0
   -0.9265   -1.1361    0.1322 C   0  0  0  0  0  0  0  0  0  0  0  0
   -0.7490   -1.2452    1.3672 O   0  0  0  0  0  0  0  0  0  0  0  0
    0.1545   -1.5632   -0.7767 C   0  0  0  0  0  0  0  0  0  0  0  0
    1.3995   -0.7876   -0.5665 C   0  0  0  0  0  0  0  0  0  0  0  0
    1.5083    0.4067   -1.2948 C   0  0  0  0  0  0  0  0  0  0  0  0
    2.6197    1.2164   -1.1804 C   0  0  0  0  0  0  0  0  0  0  0  0
    3.6637    0.8790   -0.3448 C   0  0  0  0  0  0  0  0  0  0  0  0
    3.5556   -0.2940    0.3700 C   0  0  0  0  0  0  0  0  0  0  0  0
    2.4304   -1.1099    0.2517 C   0  0  0  0  0  0  0  0  0  0  0  0
    4.6147   -0.6252    1.2116 O   0  0  0  0  0  0  0  0  0  0  0  0
    5.9026   -0.0545    0.9754 C   0  0  0  0  0  0  0  0  0  0  0  0
    5.7726    1.4563    0.7833 C   0  0  0  0  0  0  0  0  0  0  0  0
    4.7924    1.7100   -0.2341 O   0  0  0  0  0  0  0  0  0  0  0  0
   -3.2085   -0.1859    0.5058 C   0  0  0  0  0  0  0  0  0  0  0  0
   -2.9921   -0.3283    1.8808 O   0  0  0  0  0  0  0  0  0  0  0  0
  1  2  1  0
  2  3  2  0
  3  4  1  0
  3  5  1  0
  5  6  2  0
  6  7  1  0
  7  8  1  0
  8  9  2  0
  8 10  1  0
 10 11  1  0
 11 12  2  0
 12 13  1  0
 13 14  2  0
 14 15  1  0
 15 16  2  0
 15 17  1  0
 17 18  1  0
 18 19  1  0
 19 20  1  0
  7 21  2  0
 21 22  1  0
 21  2  1  0
 16 11  1  0
 20 14  1  0
M  END
>  <zinc_id>  (1) 
ZINC000000241870

>  <smiles>  (1) 
Cc1c(O)ccc(C(=O)Cc2ccc3c(c2)OCCO3)c1O

$$$$
