
     RDKit          3D

 18 19  0  0  0  0  0  0  0  0999 V2000
    1.1956    1.3893    0.7145 O   0  0  0  0  0  0  0  0  0  0  0  0
    1.9964    0.4250    0.6301 C   0  0  0  0  0  0  0  0  0  0  0  0
    1.5381   -0.7867    0.0624 N   0  0  0  0  0  0  0  0  0  0  0  0
    0.1955   -0.8623   -0.3871 C   0  0  0  0  0  0  0  0  0  0  0  0
   -0.2977   -2.2916   -1.0418 S   0  0  0  0  0  0  0  0  0  0  0  0
   -0.6755    0.2365   -0.2779 N   0  0  0  0  0  0  0  0  0  0  0  0
   -2.0161    0.2205   -0.7060 C   0  0  0  0  0  0  0  0  0  0  0  0
   -2.6355   -0.8691   -1.2818 C   0  0  0  0  0  0  0  0  0  0  0  0
   -3.9556   -0.8271   -1.6832 C   0  0  0  0  0  0  0  0  0  0  0  0
   -4.7148    0.3130   -1.5244 C   0  0  0  0  0  0  0  0  0  0  0  0
   -6.0474    0.3350   -1.9368 O   0  0  0  0  0  0  0  0  0  0  0  0
   -4.1004    1.4059   -0.9491 C   0  0  0  0  0  0  0  0  0  0  0  0
   -2.7705    1.3653   -0.5440 C   0  0  0  0  0  0  0  0  0  0  0  0
    3.3742    0.6342    1.1374 C   0  0  0  0  0  0  0  0  0  0  0  0
    4.4196    0.4451    0.0728 C   0  0  0  0  0  0  0  0  0  0  0  0
    5.6373   -0.0759    0.7743 C   0  0  0  0  0  0  0  0  0  0  0  0
    5.1803   -0.6042    2.1233 C   0  0  0  0  0  0  0  0  0  0  0  0
    3.6765   -0.4529    2.1346 C   0  0  0  0  0  0  0  0  0  0  0  0
  1  2  2  0
  2  3  1  0
  3  4  1  0
  4  5  2  0
  4  6  1  0
  6  7  1  0
  7  8  2  0
  8  9  1  0
  9 10  2  0
 10 11  1  0
 10 12  1  0
 12 13  2  0
  2 14  1  0
 14 15  1  0
 15 16  1  0
 16 17  1  0
 17 18  1  0
 13  7  1  0
 18 14  1  0
M  END
>  <zinc_id>  (1) 
ZINC000003313978

>  <smiles>  (1) 
O=C(NC(=S)Nc1ccc(O)cc1)C1CCCC1

$$$$
