
     RDKit          3D

 21 23  0  0  0  0  0  0  0  0999 V2000
   -6.0053   -0.8817   -0.0113 C   0  0  0  0  0  0  0  0  0  0  0  0
   -4.6843   -0.6358    0.4285 O   0  0  0  0  0  0  0  0  0  0  0  0
   -3.5989   -0.5681   -0.4205 C   0  0  0  0  0  0  0  0  0  0  0  0
   -3.6659   -0.7298   -1.7867 C   0  0  0  0  0  0  0  0  0  0  0  0
   -2.5700   -0.6589   -2.6206 C   0  0  0  0  0  0  0  0  0  0  0  0
   -1.3355   -0.4124   -2.0597 C   0  0  0  0  0  0  0  0  0  0  0  0
   -1.2288   -0.2462   -0.7069 C   0  0  0  0  0  0  0  0  0  0  0  0
    0.0253   -0.0008   -0.1815 C   0  0  0  0  0  0  0  0  0  0  0  0
    1.1482    0.0701   -1.0520 N   0  0  0  0  0  0  0  0  0  0  0  0
    2.4489    0.3215   -0.5350 C   0  0  0  0  0  0  0  0  0  0  0  0
    2.6940    0.5084    0.8187 C   0  0  0  0  0  0  0  0  0  0  0  0
    3.9997    0.7442    1.1883 C   0  0  0  0  0  0  0  0  0  0  0  0
    5.0419    0.7996    0.2875 C   0  0  0  0  0  0  0  0  0  0  0  0
    4.7930    0.6129   -1.0595 C   0  0  0  0  0  0  0  0  0  0  0  0
    5.7703    0.6511   -2.0285 O   0  0  0  0  0  0  0  0  0  0  0  0
    3.4870    0.3764   -1.4353 C   0  0  0  0  0  0  0  0  0  0  0  0
    0.1096    0.1635    1.1853 C   0  0  0  0  0  0  0  0  0  0  0  0
   -0.9989    0.0889    2.0031 C   0  0  0  0  0  0  0  0  0  0  0  0
   -0.8770    0.2719    3.4875 C   0  0  0  0  0  0  0  0  0  0  0  0
   -2.1973   -0.1524    1.4397 N   0  0  0  0  0  0  0  0  0  0  0  0
   -2.3558   -0.3225    0.1210 C   0  0  0  0  0  0  0  0  0  0  0  0
  1  2  1  0
  2  3  1  0
  3  4  2  0
  4  5  1  0
  5  6  2  0
  6  7  1  0
  7  8  2  0
  8  9  1  0
  9 10  1  0
 10 11  2  0
 11 12  1  0
 12 13  2  0
 13 14  1  0
 14 15  1  0
 14 16  2  0
  8 17  1  0
 17 18  2  0
 18 19  1  0
 18 20  1  0
 20 21  2  0
 21  3  1  0
 21  7  1  0
 16 10  1  0
M  END
>  <zinc_id>  (1) 
ZINC000000107247

>  <smiles>  (1) 
COc1cccc2c(Nc3cccc(O)c3)cc(C)nc12

$$$$
