
     RDKit          3D

 20 21  0  0  0  0  0  0  0  0999 V2000
   -0.6475   -1.1350   -1.9390 C   0  0  0  0  0  0  0  0  0  0  0  0
   -0.9456   -0.9686   -0.6779 C   0  0  0  0  0  0  0  0  0  0  0  0
    0.0877   -1.1524    0.2941 N   0  0  0  0  0  0  0  0  0  0  0  0
    1.1572   -0.2069    0.3164 N   0  0  0  0  0  0  0  0  0  0  0  0
    2.5095   -0.5801    0.3558 C   0  0  0  0  0  0  0  0  0  0  0  0
    2.7871   -1.8070    0.3875 O   0  0  0  0  0  0  0  0  0  0  0  0
    3.5985    0.4007    0.3609 C   0  0  0  0  0  0  0  0  0  0  0  0
    3.6152    1.6705    0.8843 C   0  0  0  0  0  0  0  0  0  0  0  0
    4.8920    2.1725    0.5959 C   0  0  0  0  0  0  0  0  0  0  0  0
    5.5779    1.2831   -0.0404 O   0  0  0  0  0  0  0  0  0  0  0  0
    4.8518    0.2155   -0.2032 C   0  0  0  0  0  0  0  0  0  0  0  0
    5.2703   -1.0418   -0.8898 C   0  0  0  0  0  0  0  0  0  0  0  0
   -2.2558   -0.5697   -0.2366 C   0  0  0  0  0  0  0  0  0  0  0  0
   -2.6980   -0.7691    1.0506 C   0  0  0  0  0  0  0  0  0  0  0  0
   -3.9546   -0.3525    1.4935 C   0  0  0  0  0  0  0  0  0  0  0  0
   -4.8063    0.2888    0.6243 C   0  0  0  0  0  0  0  0  0  0  0  0
   -6.1632    0.7437    1.1155 C   0  0  0  0  0  0  0  0  0  0  0  0
   -4.3917    0.5027   -0.6696 C   0  0  0  0  0  0  0  0  0  0  0  0
   -5.3372    1.2181   -1.6012 C   0  0  0  0  0  0  0  0  0  0  0  0
   -3.1473    0.0873   -1.1029 C   0  0  0  0  0  0  0  0  0  0  0  0
  1  2  2  0
  2  3  1  0
  3  4  1  0
  4  5  1  0
  5  6  2  0
  5  7  1  0
  7  8  1  0
  8  9  2  0
  9 10  1  0
 10 11  1  0
 11 12  1  0
  2 13  1  0
 13 14  2  0
 14 15  1  0
 15 16  2  0
 16 17  1  0
 16 18  1  0
 18 19  1  0
 18 20  2  0
 11  7  2  0
 20 13  1  0
M  END
>  <zinc_id>  (1) 
ZINC000003619635

>  <smiles>  (1) 
C=C(NNC(=O)c1ccoc1C)c1ccc(C)c(C)c1

$$$$
