
     RDKit          3D

 21 23  0  0  0  0  0  0  0  0999 V2000
   -1.8973    2.4142    1.9080 C   0  0  0  0  0  0  0  0  0  0  0  0
   -2.4103    1.0356    2.3499 C   0  0  0  0  0  0  0  0  0  0  0  0
   -3.8662    1.0036    1.5986 C   0  0  1  0  0  0  0  0  0  0  0  0
   -3.3533    1.1513    0.0554 C   0  0  0  0  0  0  0  0  0  0  0  0
   -1.9478    0.9118   -0.0743 C   0  0  0  0  0  0  0  0  0  0  0  0
   -1.6841   -0.5477    0.3093 C   0  0  0  0  0  0  0  0  0  0  0  0
   -2.6539   -1.1224    1.0155 C   0  0  0  0  0  0  0  0  0  0  0  0
   -2.0511   -2.7095    1.2753 S   0  0  0  0  0  0  0  0  0  0  0  0
   -0.5672   -2.5783    0.4634 C   0  0  0  0  0  0  0  0  0  0  0  0
    0.4805   -3.5667    0.2786 N   0  0  0  0  0  0  0  0  0  0  0  0
   -0.5695   -1.2856   -0.0000 C   0  0  0  0  0  0  0  0  0  0  0  0
    0.5942   -0.7496   -0.7925 C   0  0  0  0  0  0  0  0  0  0  0  0
    1.5724   -1.4560   -1.0429 O   0  0  0  0  0  0  0  0  0  0  0  0
    0.6108    0.5802   -1.2790 N   0  0  0  0  0  0  0  0  0  0  0  0
    1.6526    1.1781   -2.0309 C   0  0  0  0  0  0  0  0  0  0  0  0
    2.9598    1.2057   -1.3180 C   0  0  0  0  0  0  0  0  0  0  0  0
    4.0959    1.7519   -1.8945 C   0  0  0  0  0  0  0  0  0  0  0  0
    5.1234    1.6261   -0.9962 C   0  0  0  0  0  0  0  0  0  0  0  0
    4.5637    0.9961    0.1145 C   0  0  0  0  0  0  0  0  0  0  0  0
    3.2988    0.7815   -0.1449 O   0  0  0  0  0  0  0  0  0  0  0  0
   -3.9512   -0.6205    1.4999 C   0  0  0  0  0  0  0  0  0  0  0  0
  1  2  1  0
  3  2  1  1
  3  4  1  0
  4  5  1  0
  5  6  1  0
  6  7  2  0
  7  8  1  0
  8  9  1  0
  9 10  1  0
  9 11  2  0
 11 12  1  0
 12 13  2  0
 12 14  1  0
 14 15  1  0
 15 16  1  0
 16 17  2  0
 17 18  1  0
 18 19  2  0
 19 20  1  0
  7 21  1  0
 21  3  1  0
 11  6  1  0
 20 16  1  0
M  END
>  <zinc_id>  (1) 
ZINC000002558529

>  <smiles>  (1) 
CC[C@H]1CCc2c(sc(N)c2C(=O)NCc2ccco2)C1

$$$$
