
     RDKit          3D

 20 22  0  0  0  0  0  0  0  0999 V2000
   -2.1794    1.9594    1.2662 C   0  0  0  0  0  0  0  0  0  0  0  0
   -2.3294    0.8111    0.3100 C   0  0  2  0  0  0  0  0  0  0  0  0
   -3.7497    0.6188   -0.1799 C   0  0  0  0  0  0  0  0  0  0  0  0
   -4.4757   -0.4552    0.5493 C   0  0  0  0  0  0  0  0  0  0  0  0
   -3.8375   -1.7990    0.5470 C   0  0  0  0  0  0  0  0  0  0  0  0
   -2.3729   -1.6891    0.3044 C   0  0  0  0  0  0  0  0  0  0  0  0
   -1.7771   -0.4338    0.9155 C   0  0  2  0  0  0  0  0  0  0  0  0
   -1.9112   -0.4304    2.3024 O   0  0  0  0  0  0  0  0  0  0  0  0
   -0.3727   -0.3900    0.5826 N   0  0  0  0  0  4  0  0  0  0  0  0
    0.5337   -1.1217    1.3101 O   0  0  0  0  0  1  0  0  0  0  0  0
   -0.1732    0.3774   -0.4095 C   0  0  0  0  0  0  0  0  0  0  0  0
    1.0477    0.7413   -1.1052 C   0  0  0  0  0  0  0  0  0  0  0  0
    0.9064    1.5646   -2.1060 O   0  0  0  0  0  0  0  0  0  0  0  0
    2.3793    0.2867   -0.8001 C   0  0  0  0  0  0  0  0  0  0  0  0
    3.4421    0.7649   -1.6086 C   0  0  0  0  0  0  0  0  0  0  0  0
    4.6980    0.3302   -1.3127 C   0  0  0  0  0  0  0  0  0  0  0  0
    5.0068   -0.5339   -0.2921 C   0  0  0  0  0  0  0  0  0  0  0  0
    3.9429   -0.9815    0.4784 C   0  0  0  0  0  0  0  0  0  0  0  0
    2.6688   -0.5641    0.2077 C   0  0  0  0  0  0  0  0  0  0  0  0
   -1.4469    0.9443   -0.8444 N   0  0  0  0  0  0  0  0  0  0  0  0
  2  1  1  1
  2  3  1  0
  3  4  1  0
  4  5  1  0
  5  6  1  0
  6  7  1  0
  7  8  1  1
  7  9  1  0
  9 10  1  0
  9 11  2  0
 11 12  1  0
 12 13  2  0
 12 14  1  0
 14 15  2  0
 15 16  1  0
 16 17  2  0
 17 18  1  0
 18 19  2  0
 11 20  1  0
  7  2  1  0
 19 14  1  0
 20  2  1  0
M  CHG  2   9   1  10  -1
M  END
>  <zinc_id>  (1) 
ZINC000000195023

>  <smiles>  (1) 
C[C@]12CCCC[C@@]1(O)[N+]([O-])=C(C(=O)c1ccccc1)N2

$$$$
