
     RDKit          3D

 19 20  0  0  0  0  0  0  0  0999 V2000
   -5.7408   -0.6717    1.5348 C   0  0  0  0  0  0  0  0  0  0  0  0
   -5.0217   -1.9784    1.2007 C   0  0  0  0  0  0  0  0  0  0  0  0
   -4.0287   -1.6544    0.2547 O   0  0  0  0  0  0  0  0  0  0  0  0
   -3.0505   -0.7307    0.6350 C   0  0  0  0  0  0  0  0  0  0  0  0
   -3.1153   -0.2464    1.7933 O   0  0  0  0  0  0  0  0  0  0  0  0
   -1.9864   -0.3286   -0.2594 C   0  0  0  0  0  0  0  0  0  0  0  0
   -1.7434   -0.7376   -1.5502 C   0  0  0  0  0  0  0  0  0  0  0  0
   -0.6413   -0.0821   -1.9577 N   0  0  0  0  0  0  0  0  0  0  0  0
   -0.1799    0.7068   -1.0122 N   0  0  0  0  0  0  0  0  0  0  0  0
    0.9738    1.5604   -1.0755 C   0  0  0  0  0  0  0  0  0  0  0  0
    2.2115    0.8701   -0.6276 C   0  0  0  0  0  0  0  0  0  0  0  0
    2.6356    0.8736    0.6931 C   0  0  0  0  0  0  0  0  0  0  0  0
    3.8051    0.2051    1.0369 C   0  0  0  0  0  0  0  0  0  0  0  0
    4.5734   -0.4707    0.1117 C   0  0  0  0  0  0  0  0  0  0  0  0
    6.0387   -1.2932    0.6157 Cl  0  0  0  0  0  0  0  0  0  0  0  0
    4.1444   -0.4688   -1.1981 C   0  0  0  0  0  0  0  0  0  0  0  0
    2.9762    0.1987   -1.5431 C   0  0  0  0  0  0  0  0  0  0  0  0
   -0.9933    0.5712    0.0442 C   0  0  0  0  0  0  0  0  0  0  0  0
   -0.8573    1.2558    1.3037 N   0  0  0  0  0  0  0  0  0  0  0  0
  1  2  1  0
  2  3  1  0
  3  4  1  0
  4  5  2  0
  4  6  1  0
  6  7  1  0
  7  8  2  0
  8  9  1  0
  9 10  1  0
 10 11  1  0
 11 12  2  0
 12 13  1  0
 13 14  2  0
 14 15  1  0
 14 16  1  0
 16 17  2  0
  9 18  1  0
 18 19  1  0
 18  6  2  0
 17 11  1  0
M  END
>  <zinc_id>  (1) 
ZINC000000269450

>  <smiles>  (1) 
CCOC(=O)c1cnn(Cc2ccc(Cl)cc2)c1N

$$$$
