
     RDKit          3D

 22 24  0  0  0  0  0  0  0  0999 V2000
   -5.1314    2.0043    1.4288 C   0  0  0  0  0  0  0  0  0  0  0  0
   -4.3169    0.9964    0.6692 C   0  0  0  0  0  0  0  0  0  0  0  0
   -4.9541   -0.0330    0.0159 C   0  0  0  0  0  0  0  0  0  0  0  0
   -4.2793   -0.9991   -0.7056 C   0  0  0  0  0  0  0  0  0  0  0  0
   -4.9679   -2.1132   -1.4226 C   0  0  0  0  0  0  0  0  0  0  0  0
   -2.9125   -0.9338   -0.7745 C   0  0  0  0  0  0  0  0  0  0  0  0
   -2.2722    0.0963   -0.1250 C   0  0  0  0  0  0  0  0  0  0  0  0
   -2.9397    1.0643    0.5955 C   0  0  0  0  0  0  0  0  0  0  0  0
   -0.8032    0.0007   -0.3218 C   0  0  0  0  0  0  0  0  0  0  0  0
    0.0806    0.7825    0.1535 N   0  0  0  0  0  0  0  0  0  0  0  0
    1.4500    0.6197   -0.0854 N   0  0  0  0  0  0  0  0  0  0  0  0
    2.4585    0.9239    0.8692 C   0  0  0  0  0  0  0  0  0  0  0  0
    2.1005    1.3887    1.9697 O   0  0  0  0  0  0  0  0  0  0  0  0
    3.8628    0.6804    0.5040 C   0  0  0  0  0  0  0  0  0  0  0  0
    4.9557    1.5340    0.6460 C   0  0  0  0  0  0  0  0  0  0  0  0
    6.0219    0.8701    0.0905 C   0  0  0  0  0  0  0  0  0  0  0  0
    5.6633   -0.2868   -0.3622 O   0  0  0  0  0  0  0  0  0  0  0  0
    4.3562   -0.4455   -0.1312 C   0  0  0  0  0  0  0  0  0  0  0  0
    3.6277   -1.6753   -0.5277 C   0  0  0  0  0  0  0  0  0  0  0  0
   -0.6059   -1.1730   -1.1492 C   0  0  0  0  0  0  0  0  0  0  0  0
    0.5096   -1.5704   -1.5228 O   0  0  0  0  0  0  0  0  0  0  0  0
   -1.9037   -1.7312   -1.4159 N   0  0  0  0  0  0  0  0  0  0  0  0
  1  2  1  0
  2  3  2  0
  3  4  1  0
  4  5  1  0
  4  6  2  0
  6  7  1  0
  7  8  2  0
  7  9  1  0
  9 10  2  0
 10 11  1  0
 11 12  1  0
 12 13  2  0
 12 14  1  0
 14 15  1  0
 15 16  2  0
 16 17  1  0
 17 18  1  0
 18 19  1  0
  9 20  1  0
 20 21  2  0
 20 22  1  0
  8  2  1  0
 18 14  2  0
 22  6  1  0
M  END
>  <zinc_id>  (1) 
ZINC000003619722

>  <smiles>  (1) 
Cc1cc(C)c2c(c1)/C(=N/NC(=O)c1ccoc1C)C(=O)N2

$$$$
