
     RDKit          3D

 19 20  0  0  0  0  0  0  0  0999 V2000
   -5.7545    0.5993   -1.9088 C   0  0  0  0  0  0  0  0  0  0  0  0
   -4.6757    0.2658   -0.9284 C   0  0  0  0  0  0  0  0  0  0  0  0
   -4.9504    0.1651    0.4188 C   0  0  0  0  0  0  0  0  0  0  0  0
   -3.9497   -0.1469    1.3312 C   0  0  0  0  0  0  0  0  0  0  0  0
   -2.6544   -0.3654    0.9248 C   0  0  0  0  0  0  0  0  0  0  0  0
   -1.6271   -0.6973    1.9445 C   0  0  0  0  0  0  0  0  0  0  0  0
   -0.3203   -0.8762    1.3531 N   0  0  0  0  0  0  0  0  0  0  0  0
    0.5118    0.1833    0.9176 C   0  0  0  0  0  0  0  0  0  0  0  0
    0.0957    1.3579    1.0500 O   0  0  0  0  0  0  0  0  0  0  0  0
    1.8265   -0.0277    0.3244 C   0  0  0  0  0  0  0  0  0  0  0  0
    2.2706   -1.3148    0.1114 C   0  0  0  0  0  0  0  0  0  0  0  0
    3.5093   -1.5425   -0.4452 C   0  0  0  0  0  0  0  0  0  0  0  0
    4.3576   -0.5257   -0.8136 C   0  0  0  0  0  0  0  0  0  0  0  0
    5.6147   -0.7433   -1.3791 O   0  0  0  0  0  0  0  0  0  0  0  0
    3.9078    0.7785   -0.5979 C   0  0  0  0  0  0  0  0  0  0  0  0
    4.9306    2.1082   -1.0392 Cl  0  0  0  0  0  0  0  0  0  0  0  0
    2.6553    1.0033   -0.0347 C   0  0  0  0  0  0  0  0  0  0  0  0
   -2.3734   -0.2667   -0.4150 C   0  0  0  0  0  0  0  0  0  0  0  0
   -3.3743    0.0452   -1.3292 C   0  0  0  0  0  0  0  0  0  0  0  0
  1  2  1  0
  2  3  2  0
  3  4  1  0
  4  5  2  0
  5  6  1  0
  6  7  1  0
  7  8  1  0
  8  9  2  0
  8 10  1  0
 10 11  2  0
 11 12  1  0
 12 13  2  0
 13 14  1  0
 13 15  1  0
 15 16  1  0
 15 17  2  0
  5 18  1  0
 18 19  2  0
 19  2  1  0
 17 10  1  0
M  END
>  <zinc_id>  (1) 
ZINC000003364389

>  <smiles>  (1) 
Cc1ccc(CNC(=O)c2ccc(O)c(Cl)c2)cc1

$$$$
