
     RDKit          3D

 21 24  0  0  0  0  0  0  0  0999 V2000
    3.6375    1.6505   -1.5237 N   0  0  0  0  0  0  0  0  0  0  0  0
    3.8722    0.4261   -0.8428 C   0  0  0  0  0  0  0  0  0  0  0  0
    5.0754   -0.2204   -1.0086 C   0  0  0  0  0  0  0  0  0  0  0  0
    5.3206   -1.4068   -0.3574 C   0  0  0  0  0  0  0  0  0  0  0  0
    4.3379   -1.9236    0.4567 C   0  0  0  0  0  0  0  0  0  0  0  0
    3.1246   -1.2620    0.6176 C   0  0  0  0  0  0  0  0  0  0  0  0
    2.8762   -0.0727   -0.0340 C   0  0  0  0  0  0  0  0  0  0  0  0
    1.6085    0.6282    0.1280 C   0  0  0  0  0  0  0  0  0  0  0  0
    1.3992    1.7114   -0.4736 O   0  0  0  0  0  0  0  0  0  0  0  0
    0.5687    0.1321    0.9563 N   0  0  0  0  0  0  0  0  0  0  0  0
   -0.6285    0.8043    1.1026 N   0  0  0  0  0  0  0  0  0  0  0  0
   -1.7286    0.4588    0.5472 C   0  0  0  0  0  0  0  0  0  0  0  0
   -1.7420   -0.7432   -0.3172 C   0  0  0  0  0  0  0  0  0  0  0  0
   -2.2035   -0.2497   -1.6878 C   0  0  0  0  0  0  0  0  0  0  0  0
   -3.5606    0.3606   -1.5597 C   0  0  0  0  0  0  0  0  0  0  0  0
   -4.5779   -0.5986   -0.9821 C   0  0  0  0  0  0  0  0  0  0  0  0
   -4.1017   -0.9875    0.4088 C   0  0  0  0  0  0  0  0  0  0  0  0
   -2.7819   -1.6842    0.2761 C   0  0  0  0  0  0  0  0  0  0  0  0
   -3.9884    0.2017    1.3161 C   0  0  0  0  0  0  0  0  0  0  0  0
   -2.9998    1.1945    0.7182 C   0  0  0  0  0  0  0  0  0  0  0  0
   -3.5079    1.5805   -0.6785 C   0  0  0  0  0  0  0  0  0  0  0  0
  1  2  1  0
  2  3  2  0
  3  4  1  0
  4  5  2  0
  5  6  1  0
  6  7  2  0
  7  8  1  0
  8  9  2  0
  8 10  1  0
 10 11  1  0
 11 12  2  3
 12 13  1  0
 13 14  1  0
 14 15  1  0
 15 16  1  0
 16 17  1  0
 17 18  1  0
 17 19  1  0
 19 20  1  0
 20 21  1  0
  7  2  1  0
 20 12  1  0
 18 13  1  0
 21 15  1  0
M  END
>  <zinc_id>  (1) 
ZINC000000045705

>  <smiles>  (1) 
Nc1ccccc1C(=O)NN=C1C2CC3CC(C2)CC1C3

$$$$
