
     RDKit          3D

 18 19  0  0  0  0  0  0  0  0999 V2000
   -5.5202    1.3645   -1.8940 C   0  0  0  0  0  0  0  0  0  0  0  0
   -5.9473    0.0920   -1.1941 C   0  0  0  0  0  0  0  0  0  0  0  0
   -5.6596    0.2766    0.2843 C   0  0  0  0  0  0  0  0  0  0  0  0
   -4.1610    0.5194    0.4092 C   0  0  0  0  0  0  0  0  0  0  0  0
   -3.4521   -0.6838   -0.1476 C   0  0  0  0  0  0  0  0  0  0  0  0
   -1.9903   -0.5260   -0.0627 C   0  0  0  0  0  0  0  0  0  0  0  0
   -1.3033   -0.9532    1.0526 C   0  0  0  0  0  0  0  0  0  0  0  0
    0.0661   -0.7920    1.1036 C   0  0  0  0  0  0  0  0  0  0  0  0
    0.7995   -0.2175    0.0836 C   0  0  0  0  0  0  0  0  0  0  0  0
    2.2591   -0.0667    0.1830 C   0  0  0  0  0  0  0  0  0  0  0  0
    2.9589    0.4740   -0.7743 C   0  0  0  0  0  0  0  0  0  0  0  0
    4.4174    0.6642   -0.7598 C   0  0  0  0  0  0  0  0  0  0  0  0
    5.0933    0.1875    0.4586 C   0  0  0  0  0  0  0  0  0  0  0  0
    6.3292    0.3211    0.5298 O   0  0  0  0  0  0  0  0  0  0  0  0
    4.3312   -0.3977    1.4933 N   0  0  0  0  0  0  0  0  0  0  0  0
    2.9479   -0.5137    1.3415 N   0  0  0  0  0  0  0  0  0  0  0  0
    0.1001    0.2027   -1.0203 C   0  0  0  0  0  0  0  0  0  0  0  0
   -1.2691    0.0488   -1.0867 C   0  0  0  0  0  0  0  0  0  0  0  0
  1  2  1  0
  2  3  1  0
  3  4  1  0
  4  5  1  0
  5  6  1  0
  6  7  2  0
  7  8  1  0
  8  9  2  0
  9 10  1  0
 10 11  2  0
 11 12  1  0
 12 13  1  0
 13 14  2  0
 13 15  1  0
 15 16  1  0
  9 17  1  0
 17 18  2  0
 18  6  1  0
 16 10  1  0
M  END
>  <zinc_id>  (1) 
ZINC000002464434

>  <smiles>  (1) 
CCCCCc1ccc(C2=CCC(=O)NN2)cc1

$$$$
