
     RDKit          3D

 20 22  0  0  0  0  0  0  0  0999 V2000
   -3.8293   -0.2643   -2.2070 C   0  0  0  0  0  0  0  0  0  0  0  0
   -3.2335   -0.4463   -0.8057 C   0  0  0  0  0  0  0  0  0  0  0  0
   -4.0822   -1.6065   -0.2096 C   0  0  0  0  0  0  0  0  0  0  0  0
   -1.9141   -0.9460   -0.8124 C   0  0  0  0  0  0  0  0  0  0  0  0
   -0.7044    0.1159   -0.6779 C   0  0  1  0  0  0  0  0  0  0  0  0
   -1.6247    1.4595   -0.5388 C   0  0  0  0  0  0  0  0  0  0  0  0
   -2.4033    1.2094    0.6961 C   0  0  2  0  0  0  0  0  0  0  0  0
   -2.6935    2.4522    1.4903 C   0  0  0  0  0  0  0  0  0  0  0  0
   -1.8012    0.0984    1.4840 C   0  0  0  0  0  0  0  0  0  0  0  0
   -0.5341    0.0129    0.8401 N   0  0  0  0  0  0  0  0  0  0  0  0
    0.6711   -0.1430    1.5385 C   0  0  0  0  0  0  0  0  0  0  0  0
    0.7026   -0.2196    2.8287 O   0  0  0  0  0  0  0  0  0  0  0  0
    1.9770   -0.2338    0.9224 C   0  0  0  0  0  0  0  0  0  0  0  0
    3.1547   -0.3865    1.6111 C   0  0  0  0  0  0  0  0  0  0  0  0
    4.3805   -0.4684    0.9758 C   0  0  0  0  0  0  0  0  0  0  0  0
    4.4820   -0.4003   -0.3931 C   0  0  0  0  0  0  0  0  0  0  0  0
    5.7523   -0.4846   -1.0626 N   0  0  0  0  0  0  0  0  0  0  0  0
    3.3038   -0.2474   -1.0836 C   0  0  0  0  0  0  0  0  0  0  0  0
    2.0751   -0.1651   -0.4501 C   0  0  0  0  0  0  0  0  0  0  0  0
   -3.6788    0.6634    0.0880 C   0  0  0  0  0  0  0  0  0  0  0  0
  1  2  1  0
  2  3  1  0
  2  4  1  0
  5  4  1  1
  5  6  1  0
  6  7  1  0
  7  8  1  1
  7  9  1  0
  9 10  1  0
 10 11  1  0
 11 12  2  0
 11 13  1  0
 13 14  2  0
 14 15  1  0
 15 16  2  0
 16 17  1  0
 16 18  1  0
 18 19  2  0
  7 20  1  0
 20  2  1  0
 10  5  1  0
 19 13  1  0
M  END
>  <zinc_id>  (1) 
ZINC000000268704

>  <smiles>  (1) 
CC1(C)C[C@H]2C[C@](C)(CN2C(=O)c2ccc(N)cc2)C1

$$$$
