
     RDKit          3D

 22 24  0  0  0  0  0  0  0  0999 V2000
    6.6079    1.0293    0.0976 C   0  0  0  0  0  0  0  0  0  0  0  0
    5.2511    0.4122    0.1850 C   0  0  0  0  0  0  0  0  0  0  0  0
    4.1447    0.6263   -0.5906 C   0  0  0  0  0  0  0  0  0  0  0  0
    3.1473   -0.1876   -0.1009 C   0  0  0  0  0  0  0  0  0  0  0  0
    1.7716   -0.3296   -0.5835 C   0  0  0  0  0  0  0  0  0  0  0  0
    1.4152    0.3497   -1.5540 O   0  0  0  0  0  0  0  0  0  0  0  0
    0.8519   -1.2158    0.0283 N   0  0  0  0  0  0  0  0  0  0  0  0
   -0.4686   -1.3829   -0.3984 N   0  0  0  0  0  0  0  0  0  0  0  0
   -1.3067   -0.4667    0.0058 C   0  0  0  0  0  0  0  0  0  0  0  0
   -1.0400    0.6944    0.8363 C   0  0  0  0  0  0  0  0  0  0  0  0
    0.0739    1.0206    1.3185 O   0  0  0  0  0  0  0  0  0  0  0  0
   -2.2666    1.3807    0.9956 N   0  0  0  0  0  0  0  0  0  0  0  0
   -3.3125    0.6898    0.2889 C   0  0  0  0  0  0  0  0  0  0  0  0
   -4.6570    0.9825    0.1601 C   0  0  0  0  0  0  0  0  0  0  0  0
   -5.2002    2.1828    0.8225 C   0  0  0  0  0  0  0  0  0  0  0  0
   -5.4274    0.1166   -0.5962 C   0  0  0  0  0  0  0  0  0  0  0  0
   -4.8871   -0.9963   -1.2015 C   0  0  0  0  0  0  0  0  0  0  0  0
   -3.5330   -1.2691   -1.0574 C   0  0  0  0  0  0  0  0  0  0  0  0
   -2.7437   -0.4151   -0.3044 C   0  0  0  0  0  0  0  0  0  0  0  0
    3.7068   -0.8705    0.9696 C   0  0  0  0  0  0  0  0  0  0  0  0
    2.9409   -1.8702    1.7880 C   0  0  0  0  0  0  0  0  0  0  0  0
    4.9315   -0.4813    1.0889 O   0  0  0  0  0  0  0  0  0  0  0  0
  1  2  1  0
  2  3  2  0
  3  4  1  0
  4  5  1  0
  5  6  2  0
  5  7  1  0
  7  8  1  0
  8  9  2  0
  9 10  1  0
 10 11  2  0
 10 12  1  0
 12 13  1  0
 13 14  2  0
 14 15  1  0
 14 16  1  0
 16 17  2  0
 17 18  1  0
 18 19  2  0
  4 20  2  0
 20 21  1  0
 20 22  1  0
 22  2  1  0
 19  9  1  0
 19 13  1  0
M  END
>  <zinc_id>  (1) 
ZINC000004465946

>  <smiles>  (1) 
Cc1cc(C(=O)N/N=C2\C(=O)Nc3c(C)cccc32)c(C)o1

$$$$
