
     RDKit          3D

 21 24  0  0  0  0  0  0  0  0999 V2000
   -3.4403    3.3413   -0.0173 C   0  0  0  0  0  0  0  0  0  0  0  0
   -2.8102    1.9996   -0.2552 C   0  0  0  0  0  0  0  0  0  0  0  0
   -2.8218    1.3048   -1.4438 C   0  0  0  0  0  0  0  0  0  0  0  0
   -2.1352    0.1331   -1.2219 C   0  0  0  0  0  0  0  0  0  0  0  0
   -1.8887   -0.8995   -2.1567 N   0  0  0  0  0  0  0  0  0  0  0  0
   -1.7211    0.1183    0.0587 N   0  0  0  0  0  0  0  0  0  0  0  0
   -0.9800   -0.9029    0.7019 C   0  0  0  0  0  0  0  0  0  0  0  0
   -1.6070   -1.7761    1.4795 N   0  0  0  0  0  0  0  0  0  0  0  0
   -1.0738   -2.7847    2.1507 C   0  0  0  0  0  0  0  0  0  0  0  0
    0.2793   -2.9252    2.0134 N   0  0  0  0  0  0  0  0  0  0  0  0
    0.9930   -2.0627    1.2282 C   0  0  0  0  0  0  0  0  0  0  0  0
    2.6401   -1.9272    0.8278 S   0  0  0  0  0  0  0  0  0  0  0  0
    2.5699   -0.5661   -0.1951 C   0  0  0  0  0  0  0  0  0  0  0  0
    1.2391   -0.2493   -0.1960 C   0  0  0  0  0  0  0  0  0  0  0  0
    0.4179   -1.0314    0.5473 C   0  0  0  0  0  0  0  0  0  0  0  0
    0.7321    0.9365   -1.0096 C   0  0  0  0  0  0  0  0  0  0  0  0
    1.4289    2.1550   -0.4660 C   0  0  0  0  0  0  0  0  0  0  0  0
    2.7385    2.2899   -1.2455 C   0  0  0  0  0  0  0  0  0  0  0  0
    3.8326    1.5385   -0.5309 C   0  0  0  0  0  0  0  0  0  0  0  0
    3.7405    0.0676   -0.8879 C   0  0  0  0  0  0  0  0  0  0  0  0
   -2.1338    1.2406    0.6184 N   0  0  0  0  0  0  0  0  0  0  0  0
  1  2  1  0
  2  3  1  0
  3  4  2  0
  4  5  1  0
  4  6  1  0
  6  7  1  0
  7  8  2  0
  8  9  1  0
  9 10  2  0
 10 11  1  0
 11 12  1  0
 12 13  1  0
 13 14  2  0
 14 15  1  0
 14 16  1  0
 16 17  1  0
 17 18  1  0
 18 19  1  0
 19 20  1  0
  6 21  1  0
 21  2  2  0
 15  7  1  0
 15 11  2  0
 20 13  1  0
M  END
>  <zinc_id>  (1) 
ZINC000001094836

>  <smiles>  (1) 
Cc1cc(N)n(-c2ncnc3sc4c(c23)CCCCC4)n1

$$$$
