
     RDKit          3D

 19 20  0  0  0  0  0  0  0  0999 V2000
   -1.0995   -2.2958   -2.9829 C   0  0  0  0  0  0  0  0  0  0  0  0
   -1.3822   -1.3094   -1.8822 C   0  0  0  0  0  0  0  0  0  0  0  0
   -2.6667   -0.8591   -1.6565 C   0  0  0  0  0  0  0  0  0  0  0  0
   -2.9204    0.0398   -0.6525 C   0  0  0  0  0  0  0  0  0  0  0  0
   -4.3014    0.5600   -0.3672 C   0  0  0  0  0  0  0  0  0  0  0  0
   -1.8622    0.4712    0.1120 C   0  0  0  0  0  0  0  0  0  0  0  0
   -2.0707    1.4173    1.1828 C   0  0  0  0  0  0  0  0  0  0  0  0
   -3.3912    1.9031    1.4418 N   0  0  0  0  0  0  0  0  0  0  0  0
   -1.1358    1.8353    1.9018 O   0  0  0  0  0  0  0  0  0  0  0  0
   -0.5595    0.0256   -0.1038 C   0  0  0  0  0  0  0  0  0  0  0  0
    0.5206    0.4858    0.7002 N   0  0  0  0  0  0  0  0  0  0  0  0
    1.8239   -0.0085    0.4270 C   0  0  0  0  0  0  0  0  0  0  0  0
    2.0428   -0.9114   -0.5901 C   0  0  0  0  0  0  0  0  0  0  0  0
    3.2974   -1.4013   -0.8699 C   0  0  0  0  0  0  0  0  0  0  0  0
    4.3811   -0.9908   -0.1240 C   0  0  0  0  0  0  0  0  0  0  0  0
    4.1572   -0.0881    0.8916 C   0  0  0  0  0  0  0  0  0  0  0  0
    2.9113    0.4148    1.1889 C   0  0  0  0  0  0  0  0  0  0  0  0
    2.6393    1.5666    2.4881 Cl  0  0  0  0  0  0  0  0  0  0  0  0
   -0.3837   -0.8552   -1.1049 N   0  0  0  0  0  0  0  0  0  0  0  0
  1  2  1  0
  2  3  2  0
  3  4  1  0
  4  5  1  0
  4  6  2  0
  6  7  1  0
  7  8  1  0
  7  9  2  0
  6 10  1  0
 10 11  1  0
 11 12  1  0
 12 13  2  0
 13 14  1  0
 14 15  2  0
 15 16  1  0
 16 17  2  0
 17 18  1  0
 10 19  2  0
 19  2  1  0
 17 12  1  0
M  END
>  <zinc_id>  (1) 
ZINC000000235311

>  <smiles>  (1) 
Cc1cc(C)c(C(N)=O)c(Nc2ccccc2Cl)n1

$$$$
