
     RDKit          3D

 21 22  0  0  0  0  0  0  0  0999 V2000
    4.6478    3.0687    0.7871 C   0  0  0  0  0  0  0  0  0  0  0  0
    4.1344    1.6948    0.5686 C   0  0  0  0  0  0  0  0  0  0  0  0
    4.9346    0.5832    0.4798 C   0  0  0  0  0  0  0  0  0  0  0  0
    4.3416   -0.6494    0.2741 C   0  0  0  0  0  0  0  0  0  0  0  0
    5.2541   -1.8213    0.1855 C   0  0  0  0  0  0  0  0  0  0  0  0
    2.9646   -0.7789    0.1574 C   0  0  0  0  0  0  0  0  0  0  0  0
    2.1652    0.3282    0.2457 C   0  0  0  0  0  0  0  0  0  0  0  0
    0.6967    0.2470    0.1287 C   0  0  0  0  0  0  0  0  0  0  0  0
    0.0144    1.2996    0.2182 O   0  0  0  0  0  0  0  0  0  0  0  0
    0.0197   -0.9627   -0.0799 N   0  0  0  0  0  0  0  0  0  0  0  0
   -1.3993   -0.9903   -0.1863 C   0  0  0  0  0  0  0  0  0  0  0  0
   -2.1740    0.1671   -0.0896 C   0  0  0  0  0  0  0  0  0  0  0  0
   -3.5485    0.1207   -0.1953 C   0  0  0  0  0  0  0  0  0  0  0  0
   -4.3282    1.3046   -0.0955 N   0  0  0  0  0  4  0  0  0  0  0  0
   -3.7677    2.4185    0.0921 O   0  0  0  0  0  0  0  0  0  0  0  0
   -5.6841    1.3024   -0.1939 O   0  0  0  0  0  1  0  0  0  0  0  0
   -4.2177   -1.0667   -0.4004 C   0  0  0  0  0  0  0  0  0  0  0  0
   -3.4613   -2.2154   -0.4972 C   0  0  0  0  0  0  0  0  0  0  0  0
   -2.0876   -2.1680   -0.3915 C   0  0  0  0  0  0  0  0  0  0  0  0
   -1.2709   -3.4230   -0.4980 C   0  0  0  0  0  0  0  0  0  0  0  0
    2.7663    1.5409    0.4493 C   0  0  0  0  0  0  0  0  0  0  0  0
  1  2  1  0
  2  3  2  0
  3  4  1  0
  4  5  1  0
  4  6  2  0
  6  7  1  0
  7  8  1  0
  8  9  2  0
  8 10  1  0
 10 11  1  0
 11 12  2  0
 12 13  1  0
 13 14  1  0
 14 15  2  0
 14 16  1  0
 13 17  2  0
 17 18  1  0
 18 19  2  0
 19 20  1  0
  7 21  2  0
 21  2  1  0
 19 11  1  0
M  CHG  2  14   1  16  -1
M  END
>  <zinc_id>  (1) 
ZINC000000505704

>  <smiles>  (1) 
Cc1cc(C)cc(C(=O)Nc2cc([N+](=O)[O-])ccc2C)c1

$$$$
