
     RDKit          3D

 18 19  0  0  0  0  0  0  0  0999 V2000
   -1.1640    2.0629   -0.4185 C   0  0  0  0  0  0  0  0  0  0  0  0
   -1.2627    0.7381    0.3025 C   0  0  2  0  0  0  0  0  0  0  0  0
   -1.6676    1.0078    1.6234 O   0  0  0  0  0  0  0  0  0  0  0  0
    0.0894    0.1228    0.3528 C   0  0  0  0  0  0  0  0  0  0  0  0
    0.6449   -0.2004   -0.7285 O   0  0  0  0  0  0  0  0  0  0  0  0
    0.7921   -0.1214    1.5626 N   0  0  0  0  0  0  0  0  0  0  0  0
    2.0652   -0.7007    1.6101 N   0  0  0  0  0  0  0  0  0  0  0  0
    3.0955   -0.1385    1.1174 C   0  0  0  0  0  0  0  0  0  0  0  0
    4.4667   -0.6754    1.1237 C   0  0  0  0  0  0  0  0  0  0  0  0
    5.0418   -0.1901   -0.1678 C   0  0  0  0  0  0  0  0  0  0  0  0
    4.1424    0.9129   -0.6711 C   0  0  0  0  0  0  0  0  0  0  0  0
    3.1346    1.1674    0.4369 C   0  0  0  0  0  0  0  0  0  0  0  0
   -2.2589   -0.1259   -0.3599 C   0  0  0  0  0  0  0  0  0  0  0  0
   -3.1237    0.4314   -1.2849 C   0  0  0  0  0  0  0  0  0  0  0  0
   -4.0830   -0.3247   -1.9430 C   0  0  0  0  0  0  0  0  0  0  0  0
   -4.2005   -1.6758   -1.6868 C   0  0  0  0  0  0  0  0  0  0  0  0
   -3.3378   -2.2299   -0.7646 C   0  0  0  0  0  0  0  0  0  0  0  0
   -2.3743   -1.4680   -0.1043 C   0  0  0  0  0  0  0  0  0  0  0  0
  2  1  1  6
  2  3  1  0
  2  4  1  0
  4  5  2  0
  4  6  1  0
  6  7  1  0
  7  8  2  3
  8  9  1  0
  9 10  1  0
 10 11  1  0
 11 12  1  0
  2 13  1  0
 13 14  2  0
 14 15  1  0
 15 16  2  0
 16 17  1  0
 17 18  2  0
 12  8  1  0
 18 13  1  0
M  END
>  <zinc_id>  (1) 
ZINC000000272299

>  <smiles>  (1) 
C[C@](O)(C(=O)NN=C1CCCC1)c1ccccc1

$$$$
