
     RDKit          3D

 21 23  0  0  0  0  0  0  0  0999 V2000
   -2.7551    0.1955    2.3932 C   0  0  0  0  0  0  0  0  0  0  0  0
   -2.5115    1.1433    1.0654 C   0  0  2  0  0  0  0  0  0  0  0  0
   -4.1030    1.1421    0.6523 C   0  0  0  0  0  0  0  0  0  0  0  0
   -4.1755    0.8678   -0.8204 C   0  0  0  0  0  0  0  0  0  0  0  0
   -4.1474   -0.6545   -0.9599 C   0  0  0  0  0  0  0  0  0  0  0  0
   -3.1611   -1.1127    0.1087 C   0  0  0  0  0  0  0  0  0  0  0  0
   -2.0792   -0.1281    0.1223 C   0  0  1  0  0  0  0  0  0  0  0  0
   -1.7511    0.4452   -1.1609 N   0  0  0  0  0  0  0  0  0  0  0  0
   -0.4655   -0.0465   -1.4984 C   0  0  0  0  0  0  0  0  0  0  0  0
    0.1230    0.0264   -2.6291 O   0  0  0  0  0  0  0  0  0  0  0  0
    0.1212   -0.6641   -0.3638 N   0  0  0  0  0  0  0  0  0  0  0  0
    1.4476   -1.2992   -0.2932 C   0  0  0  0  0  0  0  0  0  0  0  0
    2.4719   -0.3036    0.1027 C   0  0  0  0  0  0  0  0  0  0  0  0
    2.1439    0.9982    0.3481 C   0  0  0  0  0  0  0  0  0  0  0  0
    3.1480    1.8744    0.7132 C   0  0  0  0  0  0  0  0  0  0  0  0
    4.4692    1.4715    0.8363 C   0  0  0  0  0  0  0  0  0  0  0  0
    4.7742    0.1495    0.5825 C   0  0  0  0  0  0  0  0  0  0  0  0
    3.7683   -0.7357    0.2150 C   0  0  0  0  0  0  0  0  0  0  0  0
    4.0979   -2.0235   -0.0269 F   0  0  0  0  0  0  0  0  0  0  0  0
   -0.8091   -0.5594    0.7031 C   0  0  0  0  0  0  0  0  0  0  0  0
   -0.6065   -0.7866    1.9154 O   0  0  0  0  0  0  0  0  0  0  0  0
  2  1  1  1
  2  3  1  0
  3  4  1  0
  4  5  1  0
  5  6  1  0
  7  6  1  6
  7  8  1  0
  8  9  1  0
  9 10  2  0
  9 11  1  0
 11 12  1  0
 12 13  1  0
 13 14  2  0
 14 15  1  0
 15 16  2  0
 16 17  1  0
 17 18  2  0
 18 19  1  0
 11 20  1  0
 20 21  2  0
  7  2  1  0
 18 13  1  0
 20  7  1  0
M  END
>  <zinc_id>  (1) 
ZINC000003355400

>  <smiles>  (1) 
C[C@@H]1CCCC[C@@]12NC(=O)N(Cc1ccccc1F)C2=O

$$$$
