
     RDKit          3D

 22 24  0  0  0  0  0  0  0  0999 V2000
   -5.1658    2.2877    1.1982 C   0  0  0  0  0  0  0  0  0  0  0  0
   -3.8305    1.7257    0.8963 C   0  0  0  0  0  0  0  0  0  0  0  0
   -2.6939    2.3501    1.3333 C   0  0  0  0  0  0  0  0  0  0  0  0
   -1.4437    1.8642    1.0760 C   0  0  0  0  0  0  0  0  0  0  0  0
   -1.2907    0.7076    0.3539 C   0  0  0  0  0  0  0  0  0  0  0  0
    0.0653    0.1841    0.0769 C   0  0  0  0  0  0  0  0  0  0  0  0
    1.0551    0.9904   -0.3343 N   0  0  0  0  0  0  0  0  0  0  0  0
    2.2751    0.5021   -0.5805 N   0  0  0  0  0  0  0  0  0  0  0  0
    3.3388    1.3819   -1.0247 C   0  0  0  0  0  0  0  0  0  0  0  0
    4.0944    1.9405    0.1607 C   0  0  0  0  0  0  0  0  0  0  0  0
    5.0907    2.7665   -0.3011 O   0  0  0  0  0  0  0  0  0  0  0  0
    2.5400   -0.8087   -0.4220 C   0  0  0  0  0  0  0  0  0  0  0  0
    3.6762   -1.2957   -0.6456 O   0  0  0  0  0  0  0  0  0  0  0  0
    1.5639   -1.7001    0.0005 C   0  0  0  0  0  0  0  0  0  0  0  0
    1.7849   -3.0345    0.1750 C   0  0  0  0  0  0  0  0  0  0  0  0
    0.7762   -3.8764    0.5976 C   0  0  0  0  0  0  0  0  0  0  0  0
   -0.4653   -3.3257    0.8386 C   0  0  0  0  0  0  0  0  0  0  0  0
   -0.7170   -1.9799    0.6704 C   0  0  0  0  0  0  0  0  0  0  0  0
    0.3114   -1.1649    0.2472 C   0  0  0  0  0  0  0  0  0  0  0  0
   -2.3995    0.0522   -0.1016 C   0  0  0  0  0  0  0  0  0  0  0  0
   -3.6590    0.5517    0.1640 C   0  0  0  0  0  0  0  0  0  0  0  0
   -4.9067   -0.1188   -0.3064 C   0  0  0  0  0  0  0  0  0  0  0  0
  1  2  1  0
  2  3  2  0
  3  4  1  0
  4  5  2  0
  5  6  1  0
  6  7  2  0
  7  8  1  0
  8  9  1  0
  9 10  1  0
 10 11  1  0
  8 12  1  0
 12 13  2  0
 12 14  1  0
 14 15  2  0
 15 16  1  0
 16 17  2  0
 17 18  1  0
 18 19  2  0
  5 20  1  0
 20 21  2  0
 21 22  1  0
 21  2  1  0
 19  6  1  0
 19 14  1  0
M  END
>  <zinc_id>  (1) 
ZINC000000143973

>  <smiles>  (1) 
Cc1ccc(-c2nn(CCO)c(=O)c3ccccc23)cc1C

$$$$
