MODEL 1
REMARK VINA RESULT:      -8.8      0.000      0.000
REMARK  Name = 
REMARK  6 active torsions:
REMARK  status: ('A' for Active; 'I' for Inactive)
REMARK    1  A    between atoms: N_2  and  C_3
REMARK    2  A    between atoms: N_2  and  C_11
REMARK    3  A    between atoms: C_3  and  C_4
REMARK    4  A    between atoms: C_4  and  C_5
REMARK    5  A    between atoms: C_13  and  C_14
REMARK    6  A    between atoms: C_21  and  C_22
REMARK                            x       y       z     vdW  Elec       q    Type
REMARK                         _______ _______ _______ _____ _____    ______ ____
ROOT
ATOM      1  C   UNL     1      37.941   4.451  16.244  0.00  0.00    +0.000 A 
ATOM      2  C   UNL     1      37.290   5.252  15.337  0.00  0.00    +0.000 A 
ATOM      3  C   UNL     1      36.228   4.756  14.634  0.00  0.00    +0.000 A 
ATOM      4  C   UNL     1      35.842   3.455  14.859  0.00  0.00    +0.000 A 
ATOM      5  C   UNL     1      36.491   2.647  15.769  0.00  0.00    +0.000 A 
ATOM      6  N   UNL     1      37.529   3.173  16.438  0.00  0.00    +0.000 NA
ENDROOT
BRANCH   5   7
ATOM      7  C   UNL     1      36.028   1.280  15.964  0.00  0.00    +0.000 A 
ATOM      8  C   UNL     1      36.542   0.261  15.189  0.00  0.00    +0.000 A 
ATOM      9  C   UNL     1      36.119  -1.050  15.365  0.00  0.00    +0.000 A 
ATOM     10  C   UNL     1      35.172  -1.396  16.317  0.00  0.00    +0.000 A 
ATOM     11  O   UNL     1      34.759  -2.719  16.482  0.00  0.00    +0.000 OA
ATOM     12  C   UNL     1      34.662  -0.375  17.088  0.00  0.00    +0.000 A 
ATOM     13  C   UNL     1      35.089   0.943  16.909  0.00  0.00    +0.000 A 
ENDBRANCH   5   7
BRANCH   3  14
ATOM     14  C   UNL     1      35.488   5.529  13.655  0.00  0.00    +0.000 A 
ATOM     15  C   UNL     1      35.868   5.660  12.346  0.00  0.00    +0.000 A 
ATOM     16  C   UNL     1      35.099   6.422  11.471  0.00  0.00    +0.000 A 
ATOM     17  C   UNL     1      33.942   7.064  11.871  0.00  0.00    +0.000 A 
ATOM     18  C   UNL     1      33.570   6.924  13.187  0.00  0.00    +0.000 A 
ATOM     19  C   UNL     1      34.332   6.173  14.051  0.00  0.00    +0.000 A 
ENDBRANCH   3  14
BRANCH   1  21
ATOM     20  C   UNL     1      40.128   5.615  16.218  0.00  0.00    +0.000 C 
ATOM     21  N   UNL     1      39.032   5.008  16.964  0.00  0.00    +0.000 N 
BRANCH  21  22
ATOM     22  C   UNL     1      39.003   4.933  18.388  0.00  0.00    +0.000 C 
BRANCH  22  23
ATOM     23  C   UNL     1      39.860   5.985  19.026  0.00  0.00    +0.000 C 
BRANCH  23  24
ATOM     24  C   UNL     1      39.084   7.146  19.476  0.00  0.00    +0.000 A 
ATOM     25  C   UNL     1      37.990   7.521  18.704  0.00  0.00    +0.000 A 
ATOM     26  C   UNL     1      37.234   8.602  19.059  0.00  0.00    +0.000 A 
ATOM     27  C   UNL     1      37.509   9.359  20.177  0.00  0.00    +0.000 A 
ATOM     28  C   UNL     1      38.606   8.958  20.924  0.00  0.00    +0.000 A 
ATOM     29  C   UNL     1      39.373   7.883  20.586  0.00  0.00    +0.000 A 
ENDBRANCH  23  24
ENDBRANCH  22  23
ENDBRANCH  21  22
ENDBRANCH   1  21
TORSDOF 6
ENDMDL
MODEL 2
REMARK VINA RESULT:      -8.4      2.994      7.179
REMARK  Name = 
REMARK  6 active torsions:
REMARK  status: ('A' for Active; 'I' for Inactive)
REMARK    1  A    between atoms: N_2  and  C_3
REMARK    2  A    between atoms: N_2  and  C_11
REMARK    3  A    between atoms: C_3  and  C_4
REMARK    4  A    between atoms: C_4  and  C_5
REMARK    5  A    between atoms: C_13  and  C_14
REMARK    6  A    between atoms: C_21  and  C_22
REMARK                            x       y       z     vdW  Elec       q    Type
REMARK                         _______ _______ _______ _____ _____    ______ ____
ROOT
ATOM      1  C   UNL     1      36.659   2.606  15.930  0.00  0.00    +0.000 A 
ATOM      2  C   UNL     1      35.965   3.305  14.972  0.00  0.00    +0.000 A 
ATOM      3  C   UNL     1      36.271   4.616  14.733  0.00  0.00    +0.000 A 
ATOM      4  C   UNL     1      37.275   5.200  15.469  0.00  0.00    +0.000 A 
ATOM      5  C   UNL     1      37.975   4.503  16.432  0.00  0.00    +0.000 A 
ATOM      6  N   UNL     1      37.643   3.218  16.635  0.00  0.00    +0.000 NA
ENDROOT
BRANCH   5   7
ATOM      7  C   UNL     1      39.032   5.179  17.173  0.00  0.00    +0.000 A 
ATOM      8  C   UNL     1      40.107   5.719  16.500  0.00  0.00    +0.000 A 
ATOM      9  C   UNL     1      41.121   6.374  17.187  0.00  0.00    +0.000 A 
ATOM     10  C   UNL     1      41.102   6.518  18.566  0.00  0.00    +0.000 A 
ATOM     11  O   UNL     1      42.127   7.180  19.241  0.00  0.00    +0.000 OA
ATOM     12  C   UNL     1      40.025   5.977  19.233  0.00  0.00    +0.000 A 
ATOM     13  C   UNL     1      39.007   5.318  18.540  0.00  0.00    +0.000 A 
ENDBRANCH   5   7
BRANCH   3  14
ATOM     14  C   UNL     1      35.587   5.428  13.745  0.00  0.00    +0.000 A 
ATOM     15  C   UNL     1      36.006   5.559  12.447  0.00  0.00    +0.000 A 
ATOM     16  C   UNL     1      35.290   6.360  11.562  0.00  0.00    +0.000 A 
ATOM     17  C   UNL     1      34.149   7.042  11.941  0.00  0.00    +0.000 A 
ATOM     18  C   UNL     1      33.738   6.902  13.246  0.00  0.00    +0.000 A 
ATOM     19  C   UNL     1      34.447   6.112  14.119  0.00  0.00    +0.000 A 
ENDBRANCH   3  14
BRANCH   1  21
ATOM     20  C   UNL     1      35.669   0.865  17.388  0.00  0.00    +0.000 C 
ATOM     21  N   UNL     1      36.318   1.243  16.139  0.00  0.00    +0.000 N 
BRANCH  21  22
ATOM     22  C   UNL     1      36.642   0.307  15.112  0.00  0.00    +0.000 C 
BRANCH  22  23
ATOM     23  C   UNL     1      38.099   0.335  14.762  0.00  0.00    +0.000 C 
BRANCH  23  24
ATOM     24  C   UNL     1      38.800  -0.888  15.168  0.00  0.00    +0.000 A 
ATOM     25  C   UNL     1      39.979  -1.201  14.500  0.00  0.00    +0.000 A 
ATOM     26  C   UNL     1      40.673  -2.333  14.821  0.00  0.00    +0.000 A 
ATOM     27  C   UNL     1      40.251  -3.204  15.801  0.00  0.00    +0.000 A 
ATOM     28  C   UNL     1      39.072  -2.863  16.448  0.00  0.00    +0.000 A 
ATOM     29  C   UNL     1      38.366  -1.738  16.142  0.00  0.00    +0.000 A 
ENDBRANCH  23  24
ENDBRANCH  22  23
ENDBRANCH  21  22
ENDBRANCH   1  21
TORSDOF 6
ENDMDL
MODEL 3
REMARK VINA RESULT:      -8.4      2.987      7.871
REMARK  Name = 
REMARK  6 active torsions:
REMARK  status: ('A' for Active; 'I' for Inactive)
REMARK    1  A    between atoms: N_2  and  C_3
REMARK    2  A    between atoms: N_2  and  C_11
REMARK    3  A    between atoms: C_3  and  C_4
REMARK    4  A    between atoms: C_4  and  C_5
REMARK    5  A    between atoms: C_13  and  C_14
REMARK    6  A    between atoms: C_21  and  C_22
REMARK                            x       y       z     vdW  Elec       q    Type
REMARK                         _______ _______ _______ _____ _____    ______ ____
ROOT
ATOM      1  C   UNL     1      36.479   2.636  15.865  0.00  0.00    +0.000 A 
ATOM      2  C   UNL     1      37.511   3.187  16.586  0.00  0.00    +0.000 A 
ATOM      3  C   UNL     1      37.876   4.485  16.363  0.00  0.00    +0.000 A 
ATOM      4  C   UNL     1      37.192   5.206  15.413  0.00  0.00    +0.000 A 
ATOM      5  C   UNL     1      36.155   4.658  14.687  0.00  0.00    +0.000 A 
ATOM      6  N   UNL     1      35.828   3.381  14.936  0.00  0.00    +0.000 NA
ENDROOT
BRANCH   5   7
ATOM      7  C   UNL     1      35.467   5.479  13.698  0.00  0.00    +0.000 A 
ATOM      8  C   UNL     1      35.949   5.549  12.408  0.00  0.00    +0.000 A 
ATOM      9  C   UNL     1      35.303   6.319  11.449  0.00  0.00    +0.000 A 
ATOM     10  C   UNL     1      34.158   7.045  11.736  0.00  0.00    +0.000 A 
ATOM     11  O   UNL     1      33.520   7.813  10.761  0.00  0.00    +0.000 OA
ATOM     12  C   UNL     1      33.681   6.971  13.027  0.00  0.00    +0.000 A 
ATOM     13  C   UNL     1      34.332   6.196  13.989  0.00  0.00    +0.000 A 
ENDBRANCH   5   7
BRANCH   3  14
ATOM     14  C   UNL     1      38.955   5.143  17.075  0.00  0.00    +0.000 A 
ATOM     15  C   UNL     1      39.006   5.261  18.439  0.00  0.00    +0.000 A 
ATOM     16  C   UNL     1      40.079   5.909  19.042  0.00  0.00    +0.000 A 
ATOM     17  C   UNL     1      41.122   6.449  18.312  0.00  0.00    +0.000 A 
ATOM     18  C   UNL     1      41.060   6.324  16.944  0.00  0.00    +0.000 A 
ATOM     19  C   UNL     1      39.998   5.686  16.349  0.00  0.00    +0.000 A 
ENDBRANCH   3  14
BRANCH   1  21
ATOM     20  C   UNL     1      35.245   1.006  17.265  0.00  0.00    +0.000 C 
ATOM     21  N   UNL     1      36.121   1.288  16.134  0.00  0.00    +0.000 N 
BRANCH  21  22
ATOM     22  C   UNL     1      36.651   0.272  15.284  0.00  0.00    +0.000 C 
BRANCH  22  23
ATOM     23  C   UNL     1      37.289  -0.839  16.063  0.00  0.00    +0.000 C 
BRANCH  23  24
ATOM     24  C   UNL     1      38.616  -1.197  15.549  0.00  0.00    +0.000 A 
ATOM     25  C   UNL     1      39.090  -2.472  15.838  0.00  0.00    +0.000 A 
ATOM     26  C   UNL     1      40.324  -2.864  15.401  0.00  0.00    +0.000 A 
ATOM     27  C   UNL     1      41.144  -2.034  14.668  0.00  0.00    +0.000 A 
ATOM     28  C   UNL     1      40.641  -0.771  14.398  0.00  0.00    +0.000 A 
ATOM     29  C   UNL     1      39.413  -0.361  14.825  0.00  0.00    +0.000 A 
ENDBRANCH  23  24
ENDBRANCH  22  23
ENDBRANCH  21  22
ENDBRANCH   1  21
TORSDOF 6
ENDMDL
MODEL 4
REMARK VINA RESULT:      -8.4      3.366      6.127
REMARK  Name = 
REMARK  6 active torsions:
REMARK  status: ('A' for Active; 'I' for Inactive)
REMARK    1  A    between atoms: N_2  and  C_3
REMARK    2  A    between atoms: N_2  and  C_11
REMARK    3  A    between atoms: C_3  and  C_4
REMARK    4  A    between atoms: C_4  and  C_5
REMARK    5  A    between atoms: C_13  and  C_14
REMARK    6  A    between atoms: C_21  and  C_22
REMARK                            x       y       z     vdW  Elec       q    Type
REMARK                         _______ _______ _______ _____ _____    ______ ____
ROOT
ATOM      1  C   UNL     1      37.900   2.243  15.297  0.00  0.00    +0.000 A 
ATOM      2  C   UNL     1      36.849   1.461  15.712  0.00  0.00    +0.000 A 
ATOM      3  C   UNL     1      36.952   0.099  15.652  0.00  0.00    +0.000 A 
ATOM      4  C   UNL     1      38.118  -0.451  15.172  0.00  0.00    +0.000 A 
ATOM      5  C   UNL     1      39.175   0.329  14.755  0.00  0.00    +0.000 A 
ATOM      6  N   UNL     1      39.033   1.661  14.830  0.00  0.00    +0.000 NA
ENDROOT
BRANCH   5   7
ATOM      7  C   UNL     1      40.385  -0.317  14.263  0.00  0.00    +0.000 A 
ATOM      8  C   UNL     1      40.788  -1.522  14.798  0.00  0.00    +0.000 A 
ATOM      9  C   UNL     1      41.935  -2.157  14.337  0.00  0.00    +0.000 A 
ATOM     10  C   UNL     1      42.718  -1.620  13.328  0.00  0.00    +0.000 A 
ATOM     11  O   UNL     1      43.866  -2.272  12.875  0.00  0.00    +0.000 OA
ATOM     12  C   UNL     1      42.311  -0.416  12.797  0.00  0.00    +0.000 A 
ATOM     13  C   UNL     1      41.158   0.221  13.262  0.00  0.00    +0.000 A 
ENDBRANCH   5   7
BRANCH   3  14
ATOM     14  C   UNL     1      35.891  -0.800  16.064  0.00  0.00    +0.000 A 
ATOM     15  C   UNL     1      34.932  -0.473  16.986  0.00  0.00    +0.000 A 
ATOM     16  C   UNL     1      33.948  -1.396  17.324  0.00  0.00    +0.000 A 
ATOM     17  C   UNL     1      33.890  -2.657  16.758  0.00  0.00    +0.000 A 
ATOM     18  C   UNL     1      34.858  -2.974  15.834  0.00  0.00    +0.000 A 
ATOM     19  C   UNL     1      35.830  -2.061  15.502  0.00  0.00    +0.000 A 
ENDBRANCH   3  14
BRANCH   1  21
ATOM     20  C   UNL     1      36.494   4.259  14.987  0.00  0.00    +0.000 C 
ATOM     21  N   UNL     1      37.758   3.653  15.387  0.00  0.00    +0.000 N 
BRANCH  21  22
ATOM     22  C   UNL     1      38.873   4.410  15.857  0.00  0.00    +0.000 C 
BRANCH  22  23
ATOM     23  C   UNL     1      38.506   5.300  17.006  0.00  0.00    +0.000 C 
BRANCH  23  24
ATOM     24  C   UNL     1      39.678   5.765  17.755  0.00  0.00    +0.000 A 
ATOM     25  C   UNL     1      39.544   5.899  19.133  0.00  0.00    +0.000 A 
ATOM     26  C   UNL     1      40.594   6.341  19.888  0.00  0.00    +0.000 A 
ATOM     27  C   UNL     1      41.813   6.667  19.336  0.00  0.00    +0.000 A 
ATOM     28  C   UNL     1      41.913   6.522  17.960  0.00  0.00    +0.000 A 
ATOM     29  C   UNL     1      40.878   6.083  17.190  0.00  0.00    +0.000 A 
ENDBRANCH  23  24
ENDBRANCH  22  23
ENDBRANCH  21  22
ENDBRANCH   1  21
TORSDOF 6
ENDMDL
MODEL 5
REMARK VINA RESULT:      -8.4      2.845      6.601
REMARK  Name = 
REMARK  6 active torsions:
REMARK  status: ('A' for Active; 'I' for Inactive)
REMARK    1  A    between atoms: N_2  and  C_3
REMARK    2  A    between atoms: N_2  and  C_11
REMARK    3  A    between atoms: C_3  and  C_4
REMARK    4  A    between atoms: C_4  and  C_5
REMARK    5  A    between atoms: C_13  and  C_14
REMARK    6  A    between atoms: C_21  and  C_22
REMARK                            x       y       z     vdW  Elec       q    Type
REMARK                         _______ _______ _______ _____ _____    ______ ____
ROOT
ATOM      1  C   UNL     1      37.819   2.615  14.604  0.00  0.00    +0.000 A 
ATOM      2  C   UNL     1      36.868   3.336  13.924  0.00  0.00    +0.000 A 
ATOM      3  C   UNL     1      36.680   4.658  14.217  0.00  0.00    +0.000 A 
ATOM      4  C   UNL     1      37.459   5.230  15.196  0.00  0.00    +0.000 A 
ATOM      5  C   UNL     1      38.415   4.511  15.882  0.00  0.00    +0.000 A 
ATOM      6  N   UNL     1      38.567   3.216  15.564  0.00  0.00    +0.000 NA
ENDROOT
BRANCH   5   7
ATOM      7  C   UNL     1      39.210   5.179  16.904  0.00  0.00    +0.000 A 
ATOM      8  C   UNL     1      40.382   5.817  16.557  0.00  0.00    +0.000 A 
ATOM      9  C   UNL     1      41.150   6.465  17.515  0.00  0.00    +0.000 A 
ATOM     10  C   UNL     1      40.781   6.505  18.851  0.00  0.00    +0.000 A 
ATOM     11  O   UNL     1      41.563   7.162  19.801  0.00  0.00    +0.000 OA
ATOM     12  C   UNL     1      39.609   5.867  19.192  0.00  0.00    +0.000 A 
ATOM     13  C   UNL     1      38.839   5.215  18.227  0.00  0.00    +0.000 A 
ENDBRANCH   5   7
BRANCH   3  14
ATOM     14  C   UNL     1      35.697   5.491  13.552  0.00  0.00    +0.000 A 
ATOM     15  C   UNL     1      34.581   5.990  14.170  0.00  0.00    +0.000 A 
ATOM     16  C   UNL     1      33.687   6.783  13.458  0.00  0.00    +0.000 A 
ATOM     17  C   UNL     1      33.878   7.099  12.125  0.00  0.00    +0.000 A 
ATOM     18  C   UNL     1      35.002   6.593  11.515  0.00  0.00    +0.000 A 
ATOM     19  C   UNL     1      35.884   5.808  12.220  0.00  0.00    +0.000 A 
ENDBRANCH   3  14
BRANCH   1  21
ATOM     20  C   UNL     1      39.337   0.685  14.272  0.00  0.00    +0.000 C 
ATOM     21  N   UNL     1      37.992   1.247  14.262  0.00  0.00    +0.000 N 
BRANCH  21  22
ATOM     22  C   UNL     1      36.832   0.493  13.913  0.00  0.00    +0.000 C 
BRANCH  22  23
ATOM     23  C   UNL     1      36.714  -0.766  14.719  0.00  0.00    +0.000 C 
BRANCH  23  24
ATOM     24  C   UNL     1      36.358  -0.507  16.118  0.00  0.00    +0.000 A 
ATOM     25  C   UNL     1      37.062  -1.203  17.095  0.00  0.00    +0.000 A 
ATOM     26  C   UNL     1      36.770  -1.019  18.417  0.00  0.00    +0.000 A 
ATOM     27  C   UNL     1      35.786  -0.152  18.841  0.00  0.00    +0.000 A 
ATOM     28  C   UNL     1      35.104   0.525  17.842  0.00  0.00    +0.000 A 
ATOM     29  C   UNL     1      35.380   0.355  16.518  0.00  0.00    +0.000 A 
ENDBRANCH  23  24
ENDBRANCH  22  23
ENDBRANCH  21  22
ENDBRANCH   1  21
TORSDOF 6
ENDMDL
MODEL 6
REMARK VINA RESULT:      -7.9      1.945      5.754
REMARK  Name = 
REMARK  6 active torsions:
REMARK  status: ('A' for Active; 'I' for Inactive)
REMARK    1  A    between atoms: N_2  and  C_3
REMARK    2  A    between atoms: N_2  and  C_11
REMARK    3  A    between atoms: C_3  and  C_4
REMARK    4  A    between atoms: C_4  and  C_5
REMARK    5  A    between atoms: C_13  and  C_14
REMARK    6  A    between atoms: C_21  and  C_22
REMARK                            x       y       z     vdW  Elec       q    Type
REMARK                         _______ _______ _______ _____ _____    ______ ____
ROOT
ATOM      1  C   UNL     1      36.990   5.582  14.649  0.00  0.00    +0.000 A 
ATOM      2  C   UNL     1      37.940   6.059  15.521  0.00  0.00    +0.000 A 
ATOM      3  C   UNL     1      38.378   5.268  16.546  0.00  0.00    +0.000 A 
ATOM      4  C   UNL     1      37.847   4.005  16.673  0.00  0.00    +0.000 A 
ATOM      5  C   UNL     1      36.895   3.522  15.801  0.00  0.00    +0.000 A 
ATOM      6  N   UNL     1      36.492   4.330  14.809  0.00  0.00    +0.000 NA
ENDROOT
BRANCH   5   7
ATOM      7  C   UNL     1      36.377   2.172  15.989  0.00  0.00    +0.000 A 
ATOM      8  C   UNL     1      37.017   1.102  15.399  0.00  0.00    +0.000 A 
ATOM      9  C   UNL     1      36.544  -0.193  15.572  0.00  0.00    +0.000 A 
ATOM     10  C   UNL     1      35.421  -0.470  16.337  0.00  0.00    +0.000 A 
ATOM     11  O   UNL     1      34.960  -1.776  16.502  0.00  0.00    +0.000 OA
ATOM     12  C   UNL     1      34.787   0.603  16.923  0.00  0.00    +0.000 A 
ATOM     13  C   UNL     1      35.264   1.904  16.748  0.00  0.00    +0.000 A 
ENDBRANCH   5   7
BRANCH   3  14
ATOM     14  C   UNL     1      39.372   5.692  17.513  0.00  0.00    +0.000 A 
ATOM     15  C   UNL     1      39.133   5.779  18.859  0.00  0.00    +0.000 A 
ATOM     16  C   UNL     1      40.145   6.195  19.720  0.00  0.00    +0.000 A 
ATOM     17  C   UNL     1      41.407   6.531  19.268  0.00  0.00    +0.000 A 
ATOM     18  C   UNL     1      41.635   6.440  17.915  0.00  0.00    +0.000 A 
ATOM     19  C   UNL     1      40.635   6.030  17.066  0.00  0.00    +0.000 A 
ENDBRANCH   3  14
BRANCH   1  21
ATOM     20  C   UNL     1      37.444   7.523  13.178  0.00  0.00    +0.000 C 
ATOM     21  N   UNL     1      36.571   6.431  13.590  0.00  0.00    +0.000 N 
BRANCH  21  22
ATOM     22  C   UNL     1      35.303   6.174  12.988  0.00  0.00    +0.000 C 
BRANCH  22  23
ATOM     23  C   UNL     1      34.174   6.772  13.772  0.00  0.00    +0.000 C 
BRANCH  23  24
ATOM     24  C   UNL     1      34.166   8.237  13.720  0.00  0.00    +0.000 A 
ATOM     25  C   UNL     1      34.003   8.919  14.921  0.00  0.00    +0.000 A 
ATOM     26  C   UNL     1      33.973  10.284  14.940  0.00  0.00    +0.000 A 
ATOM     27  C   UNL     1      34.101  11.041  13.796  0.00  0.00    +0.000 A 
ATOM     28  C   UNL     1      34.262  10.331  12.615  0.00  0.00    +0.000 A 
ATOM     29  C   UNL     1      34.294   8.969  12.576  0.00  0.00    +0.000 A 
ENDBRANCH  23  24
ENDBRANCH  22  23
ENDBRANCH  21  22
ENDBRANCH   1  21
TORSDOF 6
ENDMDL
MODEL 7
REMARK VINA RESULT:      -7.9     24.278     26.814
REMARK  Name = 
REMARK  6 active torsions:
REMARK  status: ('A' for Active; 'I' for Inactive)
REMARK    1  A    between atoms: N_2  and  C_3
REMARK    2  A    between atoms: N_2  and  C_11
REMARK    3  A    between atoms: C_3  and  C_4
REMARK    4  A    between atoms: C_4  and  C_5
REMARK    5  A    between atoms: C_13  and  C_14
REMARK    6  A    between atoms: C_21  and  C_22
REMARK                            x       y       z     vdW  Elec       q    Type
REMARK                         _______ _______ _______ _____ _____    ______ ____
ROOT
ATOM      1  C   UNL     1      12.989   0.019  28.690  0.00  0.00    +0.000 A 
ATOM      2  C   UNL     1      12.013  -0.430  27.832  0.00  0.00    +0.000 A 
ATOM      3  C   UNL     1      12.337  -0.749  26.543  0.00  0.00    +0.000 A 
ATOM      4  C   UNL     1      13.645  -0.608  26.141  0.00  0.00    +0.000 A 
ATOM      5  C   UNL     1      14.627  -0.159  26.997  0.00  0.00    +0.000 A 
ATOM      6  N   UNL     1      14.267   0.144  28.254  0.00  0.00    +0.000 NA
ENDROOT
BRANCH   5   7
ATOM      7  C   UNL     1      15.995  -0.037  26.509  0.00  0.00    +0.000 A 
ATOM      8  C   UNL     1      16.601  -1.108  25.887  0.00  0.00    +0.000 A 
ATOM      9  C   UNL     1      17.902  -1.010  25.408  0.00  0.00    +0.000 A 
ATOM     10  C   UNL     1      18.644   0.154  25.528  0.00  0.00    +0.000 A 
ATOM     11  O   UNL     1      19.949   0.237  25.041  0.00  0.00    +0.000 OA
ATOM     12  C   UNL     1      18.034   1.221  26.151  0.00  0.00    +0.000 A 
ATOM     13  C   UNL     1      16.726   1.120  26.632  0.00  0.00    +0.000 A 
ENDBRANCH   5   7
BRANCH   3  14
ATOM     14  C   UNL     1      11.370  -1.225  25.572  0.00  0.00    +0.000 A 
ATOM     15  C   UNL     1      11.533  -2.368  24.835  0.00  0.00    +0.000 A 
ATOM     16  C   UNL     1      10.555  -2.754  23.923  0.00  0.00    +0.000 A 
ATOM     17  C   UNL     1       9.400  -2.020  23.724  0.00  0.00    +0.000 A 
ATOM     18  C   UNL     1       9.248  -0.875  24.470  0.00  0.00    +0.000 A 
ATOM     19  C   UNL     1      10.215  -0.495  25.369  0.00  0.00    +0.000 A 
ENDBRANCH   3  14
BRANCH   1  21
ATOM     20  C   UNL     1      13.571   0.086  31.097  0.00  0.00    +0.000 C 
ATOM     21  N   UNL     1      12.614   0.328  30.025  0.00  0.00    +0.000 N 
BRANCH  21  22
ATOM     22  C   UNL     1      11.306   0.853  30.248  0.00  0.00    +0.000 C 
BRANCH  22  23
ATOM     23  C   UNL     1      11.236   2.326  29.981  0.00  0.00    +0.000 C 
BRANCH  23  24
ATOM     24  C   UNL     1      10.881   2.630  28.591  0.00  0.00    +0.000 A 
ATOM     25  C   UNL     1      11.864   3.204  27.792  0.00  0.00    +0.000 A 
ATOM     26  C   UNL     1      11.595   3.525  26.491  0.00  0.00    +0.000 A 
ATOM     27  C   UNL     1      10.362   3.301  25.917  0.00  0.00    +0.000 A 
ATOM     28  C   UNL     1       9.405   2.728  26.741  0.00  0.00    +0.000 A 
ATOM     29  C   UNL     1       9.655   2.401  28.040  0.00  0.00    +0.000 A 
ENDBRANCH  23  24
ENDBRANCH  22  23
ENDBRANCH  21  22
ENDBRANCH   1  21
TORSDOF 6
ENDMDL
MODEL 8
REMARK VINA RESULT:      -7.9     23.126     25.743
REMARK  Name = 
REMARK  6 active torsions:
REMARK  status: ('A' for Active; 'I' for Inactive)
REMARK    1  A    between atoms: N_2  and  C_3
REMARK    2  A    between atoms: N_2  and  C_11
REMARK    3  A    between atoms: C_3  and  C_4
REMARK    4  A    between atoms: C_4  and  C_5
REMARK    5  A    between atoms: C_13  and  C_14
REMARK    6  A    between atoms: C_21  and  C_22
REMARK                            x       y       z     vdW  Elec       q    Type
REMARK                         _______ _______ _______ _____ _____    ______ ____
ROOT
ATOM      1  C   UNL     1      15.350   0.159  27.614  0.00  0.00    +0.000 A 
ATOM      2  C   UNL     1      14.337  -0.069  26.715  0.00  0.00    +0.000 A 
ATOM      3  C   UNL     1      13.056  -0.232  27.163  0.00  0.00    +0.000 A 
ATOM      4  C   UNL     1      12.820  -0.164  28.516  0.00  0.00    +0.000 A 
ATOM      5  C   UNL     1      13.833   0.065  29.423  0.00  0.00    +0.000 A 
ATOM      6  N   UNL     1      15.076   0.220  28.942  0.00  0.00    +0.000 NA
ENDROOT
BRANCH   5   7
ATOM      7  C   UNL     1      13.515   0.132  30.844  0.00  0.00    +0.000 A 
ATOM      8  C   UNL     1      14.503   0.436  31.756  0.00  0.00    +0.000 A 
ATOM      9  C   UNL     1      14.218   0.512  33.114  0.00  0.00    +0.000 A 
ATOM     10  C   UNL     1      12.944   0.290  33.612  0.00  0.00    +0.000 A 
ATOM     11  O   UNL     1      12.674   0.372  34.979  0.00  0.00    +0.000 OA
ATOM     12  C   UNL     1      11.961  -0.013  32.696  0.00  0.00    +0.000 A 
ATOM     13  C   UNL     1      12.250  -0.089  31.331  0.00  0.00    +0.000 A 
ENDBRANCH   5   7
BRANCH   3  14
ATOM     14  C   UNL     1      11.929  -0.481  26.284  0.00  0.00    +0.000 A 
ATOM     15  C   UNL     1      10.888   0.394  26.116  0.00  0.00    +0.000 A 
ATOM     16  C   UNL     1       9.845   0.077  25.252  0.00  0.00    +0.000 A 
ATOM     17  C   UNL     1       9.810  -1.106  24.538  0.00  0.00    +0.000 A 
ATOM     18  C   UNL     1      10.860  -1.977  24.715  0.00  0.00    +0.000 A 
ATOM     19  C   UNL     1      11.889  -1.663  25.570  0.00  0.00    +0.000 A 
ENDBRANCH   3  14
BRANCH   1  21
ATOM     20  C   UNL     1      17.784   0.338  28.042  0.00  0.00    +0.000 C 
ATOM     21  N   UNL     1      16.665   0.336  27.107  0.00  0.00    +0.000 N 
BRANCH  21  22
ATOM     22  C   UNL     1      16.822   0.515  25.701  0.00  0.00    +0.000 C 
BRANCH  22  23
ATOM     23  C   UNL     1      18.013   1.363  25.369  0.00  0.00    +0.000 C 
BRANCH  23  24
ATOM     24  C   UNL     1      18.977   0.668  24.509  0.00  0.00    +0.000 A 
ATOM     25  C   UNL     1      19.892   1.451  23.813  0.00  0.00    +0.000 A 
ATOM     26  C   UNL     1      20.808   0.867  22.984  0.00  0.00    +0.000 A 
ATOM     27  C   UNL     1      20.873  -0.497  22.800  0.00  0.00    +0.000 A 
ATOM     28  C   UNL     1      19.947  -1.248  23.509  0.00  0.00    +0.000 A 
ATOM     29  C   UNL     1      19.026  -0.684  24.341  0.00  0.00    +0.000 A 
ENDBRANCH  23  24
ENDBRANCH  22  23
ENDBRANCH  21  22
ENDBRANCH   1  21
TORSDOF 6
ENDMDL
MODEL 9
REMARK VINA RESULT:      -7.9      4.504      8.054
REMARK  Name = 
REMARK  6 active torsions:
REMARK  status: ('A' for Active; 'I' for Inactive)
REMARK    1  A    between atoms: N_2  and  C_3
REMARK    2  A    between atoms: N_2  and  C_11
REMARK    3  A    between atoms: C_3  and  C_4
REMARK    4  A    between atoms: C_4  and  C_5
REMARK    5  A    between atoms: C_13  and  C_14
REMARK    6  A    between atoms: C_21  and  C_22
REMARK                            x       y       z     vdW  Elec       q    Type
REMARK                         _______ _______ _______ _____ _____    ______ ____
ROOT
ATOM      1  C   UNL     1      36.953   2.102  14.017  0.00  0.00    +0.000 A 
ATOM      2  C   UNL     1      37.549   1.080  14.717  0.00  0.00    +0.000 A 
ATOM      3  C   UNL     1      38.230   0.104  14.044  0.00  0.00    +0.000 A 
ATOM      4  C   UNL     1      38.297   0.177  12.672  0.00  0.00    +0.000 A 
ATOM      5  C   UNL     1      37.701   1.201  11.965  0.00  0.00    +0.000 A 
ATOM      6  N   UNL     1      37.043   2.138  12.664  0.00  0.00    +0.000 NA
ENDROOT
BRANCH   5   7
ATOM      7  C   UNL     1      37.815   1.223  10.513  0.00  0.00    +0.000 A 
ATOM      8  C   UNL     1      39.004   0.870   9.910  0.00  0.00    +0.000 A 
ATOM      9  C   UNL     1      39.130   0.877   8.527  0.00  0.00    +0.000 A 
ATOM     10  C   UNL     1      38.081   1.232   7.694  0.00  0.00    +0.000 A 
ATOM     11  O   UNL     1      38.223   1.232   6.306  0.00  0.00    +0.000 OA
ATOM     12  C   UNL     1      36.895   1.583   8.301  0.00  0.00    +0.000 A 
ATOM     13  C   UNL     1      36.771   1.576   9.692  0.00  0.00    +0.000 A 
ENDBRANCH   5   7
BRANCH   3  14
ATOM     14  C   UNL     1      38.883  -1.011  14.702  0.00  0.00    +0.000 A 
ATOM     15  C   UNL     1      38.440  -1.568  15.872  0.00  0.00    +0.000 A 
ATOM     16  C   UNL     1      39.126  -2.639  16.437  0.00  0.00    +0.000 A 
ATOM     17  C   UNL     1      40.259  -3.179  15.857  0.00  0.00    +0.000 A 
ATOM     18  C   UNL     1      40.694  -2.612  14.682  0.00  0.00    +0.000 A 
ATOM     19  C   UNL     1      40.016  -1.554  14.126  0.00  0.00    +0.000 A 
ENDBRANCH   3  14
BRANCH   1  21
ATOM     20  C   UNL     1      35.738   4.261  14.042  0.00  0.00    +0.000 C 
ATOM     21  N   UNL     1      36.265   3.103  14.754  0.00  0.00    +0.000 N 
BRANCH  21  22
ATOM     22  C   UNL     1      36.136   2.927  16.164  0.00  0.00    +0.000 C 
BRANCH  22  23
ATOM     23  C   UNL     1      34.945   2.089  16.521  0.00  0.00    +0.000 C 
BRANCH  23  24
ATOM     24  C   UNL     1      35.313   0.862  17.234  0.00  0.00    +0.000 A 
ATOM     25  C   UNL     1      34.754  -0.330  16.786  0.00  0.00    +0.000 A 
ATOM     26  C   UNL     1      35.044  -1.507  17.415  0.00  0.00    +0.000 A 
ATOM     27  C   UNL     1      35.889  -1.574  18.501  0.00  0.00    +0.000 A 
ATOM     28  C   UNL     1      36.430  -0.368  18.923  0.00  0.00    +0.000 A 
ATOM     29  C   UNL     1      36.152   0.816  18.309  0.00  0.00    +0.000 A 
ENDBRANCH  23  24
ENDBRANCH  22  23
ENDBRANCH  21  22
ENDBRANCH   1  21
TORSDOF 6
ENDMDL
MODEL 10
REMARK VINA RESULT:      -7.8      1.173      1.992
REMARK  Name = 
REMARK  6 active torsions:
REMARK  status: ('A' for Active; 'I' for Inactive)
REMARK    1  A    between atoms: N_2  and  C_3
REMARK    2  A    between atoms: N_2  and  C_11
REMARK    3  A    between atoms: C_3  and  C_4
REMARK    4  A    between atoms: C_4  and  C_5
REMARK    5  A    between atoms: C_13  and  C_14
REMARK    6  A    between atoms: C_21  and  C_22
REMARK                            x       y       z     vdW  Elec       q    Type
REMARK                         _______ _______ _______ _____ _____    ______ ____
ROOT
ATOM      1  C   UNL     1      37.782   5.095  15.978  0.00  0.00    +0.000 A 
ATOM      2  C   UNL     1      37.099   5.812  15.025  0.00  0.00    +0.000 A 
ATOM      3  C   UNL     1      36.076   5.223  14.336  0.00  0.00    +0.000 A 
ATOM      4  C   UNL     1      35.760   3.915  14.622  0.00  0.00    +0.000 A 
ATOM      5  C   UNL     1      36.442   3.191  15.578  0.00  0.00    +0.000 A 
ATOM      6  N   UNL     1      37.439   3.807  16.231  0.00  0.00    +0.000 NA
ENDROOT
BRANCH   5   7
ATOM      7  C   UNL     1      36.053   1.811  15.837  0.00  0.00    +0.000 A 
ATOM      8  C   UNL     1      36.615   0.789  15.101  0.00  0.00    +0.000 A 
ATOM      9  C   UNL     1      36.263  -0.535  15.338  0.00  0.00    +0.000 A 
ATOM     10  C   UNL     1      35.344  -0.888  16.313  0.00  0.00    +0.000 A 
ATOM     11  O   UNL     1      35.003  -2.222  16.539  0.00  0.00    +0.000 OA
ATOM     12  C   UNL     1      34.787   0.136  17.045  0.00  0.00    +0.000 A 
ATOM     13  C   UNL     1      35.142   1.466  16.805  0.00  0.00    +0.000 A 
ENDBRANCH   5   7
BRANCH   3  14
ATOM     14  C   UNL     1      35.307   5.903  13.312  0.00  0.00    +0.000 A 
ATOM     15  C   UNL     1      34.111   6.528  13.549  0.00  0.00    +0.000 A 
ATOM     16  C   UNL     1      33.437   7.159  12.508  0.00  0.00    +0.000 A 
ATOM     17  C   UNL     1      33.931   7.186  11.217  0.00  0.00    +0.000 A 
ATOM     18  C   UNL     1      35.132   6.556  10.991  0.00  0.00    +0.000 A 
ATOM     19  C   UNL     1      35.796   5.932  12.020  0.00  0.00    +0.000 A 
ENDBRANCH   3  14
BRANCH   1  21
ATOM     20  C   UNL     1      40.163   5.771  16.089  0.00  0.00    +0.000 C 
ATOM     21  N   UNL     1      38.831   5.748  16.680  0.00  0.00    +0.000 N 
BRANCH  21  22
ATOM     22  C   UNL     1      38.524   6.342  17.941  0.00  0.00    +0.000 C 
BRANCH  22  23
ATOM     23  C   UNL     1      39.343   5.760  19.053  0.00  0.00    +0.000 C 
BRANCH  23  24
ATOM     24  C   UNL     1      40.330   6.707  19.581  0.00  0.00    +0.000 A 
ATOM     25  C   UNL     1      41.497   6.179  20.123  0.00  0.00    +0.000 A 
ATOM     26  C   UNL     1      42.451   7.006  20.644  0.00  0.00    +0.000 A 
ATOM     27  C   UNL     1      42.310   8.377  20.659  0.00  0.00    +0.000 A 
ATOM     28  C   UNL     1      41.136   8.871  20.112  0.00  0.00    +0.000 A 
ATOM     29  C   UNL     1      40.173   8.062  19.587  0.00  0.00    +0.000 A 
ENDBRANCH  23  24
ENDBRANCH  22  23
ENDBRANCH  21  22
ENDBRANCH   1  21
TORSDOF 6
ENDMDL
