MODEL 1
REMARK VINA RESULT:      -7.1      0.000      0.000
REMARK  Name = 
REMARK  4 active torsions:
REMARK  status: ('A' for Active; 'I' for Inactive)
REMARK    1  A    between atoms: N_2  and  C_3
REMARK    2  A    between atoms: C_8  and  C_9
REMARK    3  A    between atoms: N_11  and  N_12
REMARK    4  A    between atoms: N_12  and  C_13
REMARK                            x       y       z     vdW  Elec       q    Type
REMARK                         _______ _______ _______ _____ _____    ______ ____
ROOT
ATOM      1  C   UNL     1      15.921  11.756  36.807  0.00  0.00    +0.000 C 
ATOM      2  O   UNL     1      16.060  13.007  36.799  0.00  0.00    +0.000 OA
ATOM      3  N   UNL     1      15.536  11.165  35.569  0.00  0.00    +0.000 NA
ENDROOT
BRANCH   1   9
ATOM      4  C   UNL     1      17.403  10.449  38.235  0.00  0.00    +0.000 A 
ATOM      5  C   UNL     1      17.573   9.691  39.369  0.00  0.00    +0.000 A 
ATOM      6  C   UNL     1      16.514   9.450  40.222  0.00  0.00    +0.000 A 
ATOM      7  C   UNL     1      15.246   9.952  39.982  0.00  0.00    +0.000 A 
ATOM      8  C   UNL     1      15.068  10.721  38.834  0.00  0.00    +0.000 A 
ATOM      9  C   UNL     1      16.139  10.948  37.998  0.00  0.00    +0.000 A 
BRANCH   4  11
ATOM     10  C   UNL     1      19.331   9.760  36.774  0.00  0.00    +0.000 C 
ATOM     11  N   UNL     1      18.448  10.736  37.315  0.00  0.00    +0.000 NA
ENDBRANCH   4  11
ENDBRANCH   1   9
BRANCH   3  12
ATOM     12  N   UNL     1      15.330  11.953  34.429  0.00  0.00    +0.000 NA
BRANCH  12  13
ATOM     13  C   UNL     1      15.935  11.668  33.176  0.00  0.00    +0.000 C 
ATOM     14  C   UNL     1      15.390  12.228  32.093  0.00  0.00    +0.000 C 
ATOM     15  C   UNL     1      14.200  13.117  32.170  0.00  0.00    +0.000 C 
ATOM     16  C   UNL     1      14.234  14.087  31.034  0.00  0.00    +0.000 C 
ATOM     17  C   UNL     1      15.664  14.467  30.709  0.00  0.00    +0.000 C 
ATOM     18  C   UNL     1      16.458  13.300  30.207  0.00  0.00    +0.000 C 
ATOM     19  C   UNL     1      15.966  11.978  30.754  0.00  0.00    +0.000 C 
ENDBRANCH  12  13
ENDBRANCH   3  12
TORSDOF 4
ENDMDL
MODEL 2
REMARK VINA RESULT:      -6.5      1.771      2.228
REMARK  Name = 
REMARK  4 active torsions:
REMARK  status: ('A' for Active; 'I' for Inactive)
REMARK    1  A    between atoms: N_2  and  C_3
REMARK    2  A    between atoms: C_8  and  C_9
REMARK    3  A    between atoms: N_11  and  N_12
REMARK    4  A    between atoms: N_12  and  C_13
REMARK                            x       y       z     vdW  Elec       q    Type
REMARK                         _______ _______ _______ _____ _____    ______ ____
ROOT
ATOM      1  C   UNL     1      17.015  11.537  36.890  0.00  0.00    +0.000 C 
ATOM      2  O   UNL     1      16.007  12.139  37.342  0.00  0.00    +0.000 OA
ATOM      3  N   UNL     1      17.137  11.506  35.470  0.00  0.00    +0.000 NA
ENDROOT
BRANCH   1   9
ATOM      4  C   UNL     1      19.044  11.675  38.234  0.00  0.00    +0.000 A 
ATOM      5  C   UNL     1      19.961  11.048  39.043  0.00  0.00    +0.000 A 
ATOM      6  C   UNL     1      19.833   9.706  39.347  0.00  0.00    +0.000 A 
ATOM      7  C   UNL     1      18.790   8.937  38.860  0.00  0.00    +0.000 A 
ATOM      8  C   UNL     1      17.857   9.568  38.039  0.00  0.00    +0.000 A 
ATOM      9  C   UNL     1      18.006  10.906  37.750  0.00  0.00    +0.000 A 
BRANCH   4  11
ATOM     10  C   UNL     1      20.151  13.932  38.297  0.00  0.00    +0.000 C 
ATOM     11  N   UNL     1      19.115  13.050  37.881  0.00  0.00    +0.000 NA
ENDBRANCH   4  11
ENDBRANCH   1   9
BRANCH   3  12
ATOM     12  N   UNL     1      16.176  12.118  34.653  0.00  0.00    +0.000 NA
BRANCH  12  13
ATOM     13  C   UNL     1      15.858  11.644  33.352  0.00  0.00    +0.000 C 
ATOM     14  C   UNL     1      14.885  12.277  32.693  0.00  0.00    +0.000 C 
ATOM     15  C   UNL     1      14.150  13.433  33.274  0.00  0.00    +0.000 C 
ATOM     16  C   UNL     1      13.672  14.319  32.171  0.00  0.00    +0.000 C 
ATOM     17  C   UNL     1      14.669  14.324  31.029  0.00  0.00    +0.000 C 
ATOM     18  C   UNL     1      14.790  12.979  30.381  0.00  0.00    +0.000 C 
ATOM     19  C   UNL     1      14.497  11.841  31.334  0.00  0.00    +0.000 C 
ENDBRANCH  12  13
ENDBRANCH   3  12
TORSDOF 4
ENDMDL
MODEL 3
REMARK VINA RESULT:      -6.4      2.048      6.643
REMARK  Name = 
REMARK  4 active torsions:
REMARK  status: ('A' for Active; 'I' for Inactive)
REMARK    1  A    between atoms: N_2  and  C_3
REMARK    2  A    between atoms: C_8  and  C_9
REMARK    3  A    between atoms: N_11  and  N_12
REMARK    4  A    between atoms: N_12  and  C_13
REMARK                            x       y       z     vdW  Elec       q    Type
REMARK                         _______ _______ _______ _____ _____    ______ ____
ROOT
ATOM      1  C   UNL     1      15.405  11.596  33.200  0.00  0.00    +0.000 C 
ATOM      2  O   UNL     1      14.862  10.472  33.046  0.00  0.00    +0.000 OA
ATOM      3  N   UNL     1      16.778  11.579  33.580  0.00  0.00    +0.000 NA
ENDROOT
BRANCH   1   9
ATOM      4  C   UNL     1      14.718  13.438  31.758  0.00  0.00    +0.000 A 
ATOM      5  C   UNL     1      14.030  14.619  31.609  0.00  0.00    +0.000 A 
ATOM      6  C   UNL     1      13.346  15.176  32.672  0.00  0.00    +0.000 A 
ATOM      7  C   UNL     1      13.318  14.582  33.921  0.00  0.00    +0.000 A 
ATOM      8  C   UNL     1      14.013  13.385  34.079  0.00  0.00    +0.000 A 
ATOM      9  C   UNL     1      14.688  12.849  33.004  0.00  0.00    +0.000 A 
BRANCH   4  11
ATOM     10  C   UNL     1      16.601  13.361  30.093  0.00  0.00    +0.000 C 
ATOM     11  N   UNL     1      15.443  12.810  30.709  0.00  0.00    +0.000 NA
ENDBRANCH   4  11
ENDBRANCH   1   9
BRANCH   3  12
ATOM     12  N   UNL     1      17.457  10.367  33.764  0.00  0.00    +0.000 NA
BRANCH  12  13
ATOM     13  C   UNL     1      17.672   9.791  35.045  0.00  0.00    +0.000 C 
ATOM     14  C   UNL     1      17.584  10.603  36.101  0.00  0.00    +0.000 C 
ATOM     15  C   UNL     1      17.275  12.052  35.969  0.00  0.00    +0.000 C 
ATOM     16  C   UNL     1      16.588  12.525  37.208  0.00  0.00    +0.000 C 
ATOM     17  C   UNL     1      15.706  11.430  37.774  0.00  0.00    +0.000 C 
ATOM     18  C   UNL     1      16.503  10.247  38.234  0.00  0.00    +0.000 C 
ATOM     19  C   UNL     1      17.795  10.076  37.467  0.00  0.00    +0.000 C 
ENDBRANCH  12  13
ENDBRANCH   3  12
TORSDOF 4
ENDMDL
MODEL 4
REMARK VINA RESULT:      -6.3      2.776      6.929
REMARK  Name = 
REMARK  4 active torsions:
REMARK  status: ('A' for Active; 'I' for Inactive)
REMARK    1  A    between atoms: N_2  and  C_3
REMARK    2  A    between atoms: C_8  and  C_9
REMARK    3  A    between atoms: N_11  and  N_12
REMARK    4  A    between atoms: N_12  and  C_13
REMARK                            x       y       z     vdW  Elec       q    Type
REMARK                         _______ _______ _______ _____ _____    ______ ____
ROOT
ATOM      1  C   UNL     1      17.371  10.145  36.600  0.00  0.00    +0.000 C 
ATOM      2  O   UNL     1      17.481   9.036  36.017  0.00  0.00    +0.000 OA
ATOM      3  N   UNL     1      18.502  10.564  37.360  0.00  0.00    +0.000 NA
ENDROOT
BRANCH   1   9
ATOM      4  C   UNL     1      15.916  11.639  35.338  0.00  0.00    +0.000 A 
ATOM      5  C   UNL     1      14.774  12.403  35.290  0.00  0.00    +0.000 A 
ATOM      6  C   UNL     1      13.930  12.478  36.382  0.00  0.00    +0.000 A 
ATOM      7  C   UNL     1      14.188  11.800  37.560  0.00  0.00    +0.000 A 
ATOM      8  C   UNL     1      15.345  11.025  37.614  0.00  0.00    +0.000 A 
ATOM      9  C   UNL     1      16.171  10.965  36.513  0.00  0.00    +0.000 A 
BRANCH   4  11
ATOM     10  C   UNL     1      16.501  10.946  32.992  0.00  0.00    +0.000 C 
ATOM     11  N   UNL     1      16.827  11.517  34.254  0.00  0.00    +0.000 NA
ENDBRANCH   4  11
ENDBRANCH   1   9
BRANCH   3  12
ATOM     12  N   UNL     1      19.652   9.767  37.436  0.00  0.00    +0.000 NA
BRANCH  12  13
ATOM     13  C   UNL     1      20.690   9.819  36.467  0.00  0.00    +0.000 C 
ATOM     14  C   UNL     1      21.903  10.179  36.892  0.00  0.00    +0.000 C 
ATOM     15  C   UNL     1      22.183  10.515  38.314  0.00  0.00    +0.000 C 
ATOM     16  C   UNL     1      23.612  10.207  38.623  0.00  0.00    +0.000 C 
ATOM     17  C   UNL     1      24.068   8.989  37.844  0.00  0.00    +0.000 C 
ATOM     18  C   UNL     1      24.066   9.233  36.366  0.00  0.00    +0.000 C 
ATOM     19  C   UNL     1      23.034  10.256  35.941  0.00  0.00    +0.000 C 
ENDBRANCH  12  13
ENDBRANCH   3  12
TORSDOF 4
ENDMDL
MODEL 5
REMARK VINA RESULT:      -6.0     21.189     24.138
REMARK  Name = 
REMARK  4 active torsions:
REMARK  status: ('A' for Active; 'I' for Inactive)
REMARK    1  A    between atoms: N_2  and  C_3
REMARK    2  A    between atoms: C_8  and  C_9
REMARK    3  A    between atoms: N_11  and  N_12
REMARK    4  A    between atoms: N_12  and  C_13
REMARK                            x       y       z     vdW  Elec       q    Type
REMARK                         _______ _______ _______ _____ _____    ______ ____
ROOT
ATOM      1  C   UNL     1      29.085  24.954  21.610  0.00  0.00    +0.000 C 
ATOM      2  O   UNL     1      29.714  24.347  20.705  0.00  0.00    +0.000 OA
ATOM      3  N   UNL     1      29.056  26.375  21.502  0.00  0.00    +0.000 NA
ENDROOT
BRANCH   1   9
ATOM      4  C   UNL     1      29.196  23.707  23.701  0.00  0.00    +0.000 A 
ATOM      5  C   UNL     1      28.536  23.063  24.720  0.00  0.00    +0.000 A 
ATOM      6  C   UNL     1      27.157  22.987  24.731  0.00  0.00    +0.000 A 
ATOM      7  C   UNL     1      26.381  23.547  23.731  0.00  0.00    +0.000 A 
ATOM      8  C   UNL     1      27.044  24.201  22.694  0.00  0.00    +0.000 A 
ATOM      9  C   UNL     1      28.421  24.263  22.706  0.00  0.00    +0.000 A 
BRANCH   4  11
ATOM     10  C   UNL     1      31.512  23.250  24.568  0.00  0.00    +0.000 C 
ATOM     11  N   UNL     1      30.611  23.822  23.627  0.00  0.00    +0.000 NA
ENDBRANCH   4  11
ENDBRANCH   1   9
BRANCH   3  12
ATOM     12  N   UNL     1      29.699  27.029  20.442  0.00  0.00    +0.000 NA
BRANCH  12  13
ATOM     13  C   UNL     1      29.036  27.956  19.594  0.00  0.00    +0.000 C 
ATOM     14  C   UNL     1      29.583  28.189  18.399  0.00  0.00    +0.000 C 
ATOM     15  C   UNL     1      30.832  27.518  17.950  0.00  0.00    +0.000 C 
ATOM     16  C   UNL     1      30.828  27.412  16.460  0.00  0.00    +0.000 C 
ATOM     17  C   UNL     1      29.416  27.195  15.951  0.00  0.00    +0.000 C 
ATOM     18  C   UNL     1      28.531  28.370  16.229  0.00  0.00    +0.000 C 
ATOM     19  C   UNL     1      28.950  29.142  17.461  0.00  0.00    +0.000 C 
ENDBRANCH  12  13
ENDBRANCH   3  12
TORSDOF 4
ENDMDL
MODEL 6
REMARK VINA RESULT:      -5.8     19.273     22.145
REMARK  Name = 
REMARK  4 active torsions:
REMARK  status: ('A' for Active; 'I' for Inactive)
REMARK    1  A    between atoms: N_2  and  C_3
REMARK    2  A    between atoms: C_8  and  C_9
REMARK    3  A    between atoms: N_11  and  N_12
REMARK    4  A    between atoms: N_12  and  C_13
REMARK                            x       y       z     vdW  Elec       q    Type
REMARK                         _______ _______ _______ _____ _____    ______ ____
ROOT
ATOM      1  C   UNL     1      28.771  23.420  22.877  0.00  0.00    +0.000 C 
ATOM      2  O   UNL     1      27.815  23.010  22.170  0.00  0.00    +0.000 OA
ATOM      3  N   UNL     1      29.679  24.314  22.240  0.00  0.00    +0.000 NA
ENDROOT
BRANCH   1   9
ATOM      4  C   UNL     1      27.877  23.105  25.123  0.00  0.00    +0.000 A 
ATOM      5  C   UNL     1      28.083  22.716  26.425  0.00  0.00    +0.000 A 
ATOM      6  C   UNL     1      29.320  22.259  26.837  0.00  0.00    +0.000 A 
ATOM      7  C   UNL     1      30.398  22.171  25.973  0.00  0.00    +0.000 A 
ATOM      8  C   UNL     1      30.194  22.565  24.652  0.00  0.00    +0.000 A 
ATOM      9  C   UNL     1      28.952  23.017  24.265  0.00  0.00    +0.000 A 
BRANCH   4  11
ATOM     10  C   UNL     1      26.029  24.809  25.035  0.00  0.00    +0.000 C 
ATOM     11  N   UNL     1      26.632  23.585  24.632  0.00  0.00    +0.000 NA
ENDBRANCH   4  11
ENDBRANCH   1   9
BRANCH   3  12
ATOM     12  N   UNL     1      29.493  24.696  20.904  0.00  0.00    +0.000 NA
BRANCH  12  13
ATOM     13  C   UNL     1      29.702  26.024  20.446  0.00  0.00    +0.000 C 
ATOM     14  C   UNL     1      28.737  26.913  20.694  0.00  0.00    +0.000 C 
ATOM     15  C   UNL     1      27.488  26.553  21.417  0.00  0.00    +0.000 C 
ATOM     16  C   UNL     1      26.962  27.758  22.127  0.00  0.00    +0.000 C 
ATOM     17  C   UNL     1      28.107  28.623  22.614  0.00  0.00    +0.000 C 
ATOM     18  C   UNL     1      28.904  29.193  21.481  0.00  0.00    +0.000 C 
ATOM     19  C   UNL     1      28.883  28.316  20.249  0.00  0.00    +0.000 C 
ENDBRANCH  12  13
ENDBRANCH   3  12
TORSDOF 4
ENDMDL
MODEL 7
REMARK VINA RESULT:      -5.8      6.372      7.467
REMARK  Name = 
REMARK  4 active torsions:
REMARK  status: ('A' for Active; 'I' for Inactive)
REMARK    1  A    between atoms: N_2  and  C_3
REMARK    2  A    between atoms: C_8  and  C_9
REMARK    3  A    between atoms: N_11  and  N_12
REMARK    4  A    between atoms: N_12  and  C_13
REMARK                            x       y       z     vdW  Elec       q    Type
REMARK                         _______ _______ _______ _____ _____    ______ ____
ROOT
ATOM      1  C   UNL     1      18.859   9.174  39.263  0.00  0.00    +0.000 C 
ATOM      2  O   UNL     1      18.828   9.111  38.007  0.00  0.00    +0.000 OA
ATOM      3  N   UNL     1      20.046   9.723  39.830  0.00  0.00    +0.000 NA
ENDROOT
BRANCH   1   9
ATOM      4  C   UNL     1      17.835   7.465  40.667  0.00  0.00    +0.000 A 
ATOM      5  C   UNL     1      16.779   7.069  41.453  0.00  0.00    +0.000 A 
ATOM      6  C   UNL     1      15.700   7.906  41.658  0.00  0.00    +0.000 A 
ATOM      7  C   UNL     1      15.626   9.166  41.091  0.00  0.00    +0.000 A 
ATOM      8  C   UNL     1      16.693   9.572  40.292  0.00  0.00    +0.000 A 
ATOM      9  C   UNL     1      17.759   8.720  40.102  0.00  0.00    +0.000 A 
BRANCH   4  11
ATOM     10  C   UNL     1      18.952   5.234  40.349  0.00  0.00    +0.000 C 
ATOM     11  N   UNL     1      18.976   6.655  40.413  0.00  0.00    +0.000 NA
ENDBRANCH   4  11
ENDBRANCH   1   9
BRANCH   3  12
ATOM     12  N   UNL     1      21.099  10.158  39.012  0.00  0.00    +0.000 NA
BRANCH  12  13
ATOM     13  C   UNL     1      22.403   9.598  39.072  0.00  0.00    +0.000 C 
ATOM     14  C   UNL     1      23.045   9.422  37.915  0.00  0.00    +0.000 C 
ATOM     15  C   UNL     1      22.443   9.788  36.605  0.00  0.00    +0.000 C 
ATOM     16  C   UNL     1      23.530  10.132  35.641  0.00  0.00    +0.000 C 
ATOM     17  C   UNL     1      24.680  10.807  36.362  0.00  0.00    +0.000 C 
ATOM     18  C   UNL     1      25.347   9.891  37.341  0.00  0.00    +0.000 C 
ATOM     19  C   UNL     1      24.407   8.844  37.899  0.00  0.00    +0.000 C 
ENDBRANCH  12  13
ENDBRANCH   3  12
TORSDOF 4
ENDMDL
MODEL 8
REMARK VINA RESULT:      -5.7     21.959     23.308
REMARK  Name = 
REMARK  4 active torsions:
REMARK  status: ('A' for Active; 'I' for Inactive)
REMARK    1  A    between atoms: N_2  and  C_3
REMARK    2  A    between atoms: C_8  and  C_9
REMARK    3  A    between atoms: N_11  and  N_12
REMARK    4  A    between atoms: N_12  and  C_13
REMARK                            x       y       z     vdW  Elec       q    Type
REMARK                         _______ _______ _______ _____ _____    ______ ____
ROOT
ATOM      1  C   UNL     1      20.552  -8.577  25.549  0.00  0.00    +0.000 C 
ATOM      2  O   UNL     1      20.158  -9.268  24.575  0.00  0.00    +0.000 OA
ATOM      3  N   UNL     1      21.795  -8.967  26.127  0.00  0.00    +0.000 NA
ENDROOT
BRANCH   1   9
ATOM      4  C   UNL     1      18.765  -7.687  26.948  0.00  0.00    +0.000 A 
ATOM      5  C   UNL     1      18.075  -6.595  27.418  0.00  0.00    +0.000 A 
ATOM      6  C   UNL     1      18.415  -5.319  27.014  0.00  0.00    +0.000 A 
ATOM      7  C   UNL     1      19.452  -5.078  26.129  0.00  0.00    +0.000 A 
ATOM      8  C   UNL     1      20.155  -6.181  25.650  0.00  0.00    +0.000 A 
ATOM      9  C   UNL     1      19.798  -7.445  26.067  0.00  0.00    +0.000 A 
BRANCH   4  11
ATOM     10  C   UNL     1      17.322  -9.416  28.068  0.00  0.00    +0.000 C 
ATOM     11  N   UNL     1      18.469  -9.027  27.321  0.00  0.00    +0.000 NA
ENDBRANCH   4  11
ENDBRANCH   1   9
BRANCH   3  12
ATOM     12  N   UNL     1      22.513 -10.059  25.619  0.00  0.00    +0.000 NA
BRANCH  12  13
ATOM     13  C   UNL     1      23.909 -10.011  25.364  0.00  0.00    +0.000 C 
ATOM     14  C   UNL     1      24.297  -9.543  24.175  0.00  0.00    +0.000 C 
ATOM     15  C   UNL     1      23.327  -9.085  23.145  0.00  0.00    +0.000 C 
ATOM     16  C   UNL     1      23.971  -8.043  22.289  0.00  0.00    +0.000 C 
ATOM     17  C   UNL     1      24.927  -7.202  23.112  0.00  0.00    +0.000 C 
ATOM     18  C   UNL     1      26.081  -8.004  23.629  0.00  0.00    +0.000 C 
ATOM     19  C   UNL     1      25.735  -9.463  23.838  0.00  0.00    +0.000 C 
ENDBRANCH  12  13
ENDBRANCH   3  12
TORSDOF 4
ENDMDL
MODEL 9
REMARK VINA RESULT:      -5.7     17.692     19.537
REMARK  Name = 
REMARK  4 active torsions:
REMARK  status: ('A' for Active; 'I' for Inactive)
REMARK    1  A    between atoms: N_2  and  C_3
REMARK    2  A    between atoms: C_8  and  C_9
REMARK    3  A    between atoms: N_11  and  N_12
REMARK    4  A    between atoms: N_12  and  C_13
REMARK                            x       y       z     vdW  Elec       q    Type
REMARK                         _______ _______ _______ _____ _____    ______ ____
ROOT
ATOM      1  C   UNL     1      26.643  23.438  25.631  0.00  0.00    +0.000 C 
ATOM      2  O   UNL     1      25.687  22.729  25.222  0.00  0.00    +0.000 OA
ATOM      3  N   UNL     1      26.282  24.644  26.299  0.00  0.00    +0.000 NA
ENDROOT
BRANCH   1   9
ATOM      4  C   UNL     1      28.609  23.248  24.203  0.00  0.00    +0.000 A 
ATOM      5  C   UNL     1      29.927  22.884  24.062  0.00  0.00    +0.000 A 
ATOM      6  C   UNL     1      30.631  22.357  25.127  0.00  0.00    +0.000 A 
ATOM      7  C   UNL     1      30.055  22.173  26.372  0.00  0.00    +0.000 A 
ATOM      8  C   UNL     1      28.719  22.540  26.521  0.00  0.00    +0.000 A 
ATOM      9  C   UNL     1      28.037  23.063  25.444  0.00  0.00    +0.000 A 
BRANCH   4  11
ATOM     10  C   UNL     1      28.347  24.201  21.891  0.00  0.00    +0.000 C 
ATOM     11  N   UNL     1      27.826  23.794  23.150  0.00  0.00    +0.000 NA
ENDBRANCH   4  11
ENDBRANCH   1   9
BRANCH   3  12
ATOM     12  N   UNL     1      24.936  24.995  26.474  0.00  0.00    +0.000 NA
BRANCH  12  13
ATOM     13  C   UNL     1      24.463  25.683  27.622  0.00  0.00    +0.000 C 
ATOM     14  C   UNL     1      23.356  26.415  27.482  0.00  0.00    +0.000 C 
ATOM     15  C   UNL     1      22.629  26.521  26.188  0.00  0.00    +0.000 C 
ATOM     16  C   UNL     1      21.182  26.777  26.454  0.00  0.00    +0.000 C 
ATOM     17  C   UNL     1      20.743  26.062  27.716  0.00  0.00    +0.000 C 
ATOM     18  C   UNL     1      21.431  26.597  28.934  0.00  0.00    +0.000 C 
ATOM     19  C   UNL     1      22.803  27.161  28.633  0.00  0.00    +0.000 C 
ENDBRANCH  12  13
ENDBRANCH   3  12
TORSDOF 4
ENDMDL
MODEL 10
REMARK VINA RESULT:      -5.6     21.441     22.598
REMARK  Name = 
REMARK  4 active torsions:
REMARK  status: ('A' for Active; 'I' for Inactive)
REMARK    1  A    between atoms: N_2  and  C_3
REMARK    2  A    between atoms: C_8  and  C_9
REMARK    3  A    between atoms: N_11  and  N_12
REMARK    4  A    between atoms: N_12  and  C_13
REMARK                            x       y       z     vdW  Elec       q    Type
REMARK                         _______ _______ _______ _____ _____    ______ ____
ROOT
ATOM      1  C   UNL     1      16.983  -8.074  26.624  0.00  0.00    +0.000 C 
ATOM      2  O   UNL     1      17.005  -8.927  27.548  0.00  0.00    +0.000 OA
ATOM      3  N   UNL     1      15.826  -8.086  25.793  0.00  0.00    +0.000 NA
ENDROOT
BRANCH   1   9
ATOM      4  C   UNL     1      19.193  -7.551  25.738  0.00  0.00    +0.000 A 
ATOM      5  C   UNL     1      20.194  -6.628  25.548  0.00  0.00    +0.000 A 
ATOM      6  C   UNL     1      20.056  -5.334  26.010  0.00  0.00    +0.000 A 
ATOM      7  C   UNL     1      18.922  -4.907  26.678  0.00  0.00    +0.000 A 
ATOM      8  C   UNL     1      17.904  -5.838  26.874  0.00  0.00    +0.000 A 
ATOM      9  C   UNL     1      18.064  -7.123  26.405  0.00  0.00    +0.000 A 
BRANCH   4  11
ATOM     10  C   UNL     1      20.084  -9.340  24.211  0.00  0.00    +0.000 C 
ATOM     11  N   UNL     1      19.268  -8.898  25.290  0.00  0.00    +0.000 NA
ENDBRANCH   4  11
ENDBRANCH   1   9
BRANCH   3  12
ATOM     12  N   UNL     1      14.791  -9.005  26.015  0.00  0.00    +0.000 NA
BRANCH  12  13
ATOM     13  C   UNL     1      13.430  -8.716  25.729  0.00  0.00    +0.000 C 
ATOM     14  C   UNL     1      12.516  -9.580  26.176  0.00  0.00    +0.000 C 
ATOM     15  C   UNL     1      12.881 -10.801  26.943  0.00  0.00    +0.000 C 
ATOM     16  C   UNL     1      11.754 -11.168  27.853  0.00  0.00    +0.000 C 
ATOM     17  C   UNL     1      11.057  -9.921  28.359  0.00  0.00    +0.000 C 
ATOM     18  C   UNL     1      10.392  -9.160  27.253  0.00  0.00    +0.000 C 
ATOM     19  C   UNL     1      11.078  -9.345  25.918  0.00  0.00    +0.000 C 
ENDBRANCH  12  13
ENDBRANCH   3  12
TORSDOF 4
ENDMDL
