MODEL 1
REMARK VINA RESULT:      -7.5      0.000      0.000
REMARK  Name = 
REMARK  8 active torsions:
REMARK  status: ('A' for Active; 'I' for Inactive)
REMARK    1  A    between atoms: C_4  and  C_5
REMARK    2  A    between atoms: C_5  and  C_7
REMARK    3  A    between atoms: C_7  and  O_8
REMARK    4  A    between atoms: O_8  and  C_9
REMARK    5  A    between atoms: C_14  and  C_15
REMARK    6  A    between atoms: N_17  and  C_18
REMARK    7  A    between atoms: C_18  and  C_19
REMARK    8  A    between atoms: N_27  and  C_28
REMARK                            x       y       z     vdW  Elec       q    Type
REMARK                         _______ _______ _______ _____ _____    ______ ____
ROOT
ATOM      1  C   UNL     1      36.022   2.050  16.055  0.00  0.00    +0.000 A 
ATOM      2  C   UNL     1      34.650   2.261  16.171  0.00  0.00    +0.000 A 
ATOM      3  C   UNL     1      34.016   3.254  15.457  0.00  0.00    +0.000 A 
ATOM      4  C   UNL     1      34.794   4.029  14.621  0.00  0.00    +0.000 A 
ATOM      5  C   UNL     1      36.160   3.820  14.506  0.00  0.00    +0.000 A 
ATOM      6  C   UNL     1      36.790   2.831  15.218  0.00  0.00    +0.000 A 
ENDROOT
BRANCH   6   7
ATOM      7  C   UNL     1      38.220   2.604  15.097  0.00  0.00    +0.000 C 
ATOM      8  O   UNL     1      39.026   3.279  15.755  0.00  0.00    +0.000 OA
ATOM      9  N   UNL     1      38.763   1.608  14.227  0.00  0.00    +0.000 NA
BRANCH   9  10
ATOM     10  C   UNL     1      40.212   1.405  14.129  0.00  0.00    +0.000 C 
BRANCH  10  11
ATOM     11  C   UNL     1      40.464  -0.043  14.394  0.00  0.00    +0.000 A 
ATOM     12  C   UNL     1      39.510  -0.837  15.016  0.00  0.00    +0.000 A 
ATOM     13  C   UNL     1      39.756  -2.170  15.261  0.00  0.00    +0.000 A 
ATOM     14  C   UNL     1      40.942  -2.768  14.905  0.00  0.00    +0.000 A 
ATOM     15  C   UNL     1      41.900  -2.001  14.289  0.00  0.00    +0.000 A 
ATOM     16  C   UNL     1      41.640  -0.675  14.052  0.00  0.00    +0.000 A 
ENDBRANCH  10  11
ENDBRANCH   9  10
ENDBRANCH   6   7
BRANCH   1  17
ATOM     17  O   UNL     1      36.686   1.049  16.771  0.00  0.00    +0.000 OA
BRANCH  17  18
ATOM     18  C   UNL     1      36.561   0.961  18.176  0.00  0.00    +0.000 C 
BRANCH  18  19
ATOM     19  C   UNL     1      35.843  -0.280  18.553  0.00  0.00    +0.000 C 
ATOM     20  O   UNL     1      35.205  -0.353  19.631  0.00  0.00    +0.000 OA
BRANCH  19  24
ATOM     21  C   UNL     1      34.500  -3.726  15.111  0.00  0.00    +0.000 C 
ATOM     22  C   UNL     1      35.292  -3.008  16.146  0.00  0.00    +0.000 A 
ATOM     23  C   UNL     1      34.886  -1.831  16.782  0.00  0.00    +0.000 A 
ATOM     24  C   UNL     1      35.862  -1.445  17.682  0.00  0.00    +0.000 A 
ATOM     25  C   UNL     1      36.860  -2.402  17.578  0.00  0.00    +0.000 A 
ATOM     26  C   UNL     1      38.131  -2.406  18.364  0.00  0.00    +0.000 C 
ATOM     27  N   UNL     1      36.501  -3.324  16.659  0.00  0.00    +0.000 N 
BRANCH  27  28
ATOM     28  C   UNL     1      37.242  -4.503  16.228  0.00  0.00    +0.000 C 
ATOM     29  C   UNL     1      38.037  -5.260  17.268  0.00  0.00    +0.000 C 
ATOM     30  C   UNL     1      36.714  -5.831  16.719  0.00  0.00    +0.000 C 
ENDBRANCH  27  28
ENDBRANCH  19  24
ENDBRANCH  18  19
ENDBRANCH  17  18
ENDBRANCH   1  17
TORSDOF 8
ENDMDL
MODEL 2
REMARK VINA RESULT:      -7.4      2.200      3.167
REMARK  Name = 
REMARK  8 active torsions:
REMARK  status: ('A' for Active; 'I' for Inactive)
REMARK    1  A    between atoms: C_4  and  C_5
REMARK    2  A    between atoms: C_5  and  C_7
REMARK    3  A    between atoms: C_7  and  O_8
REMARK    4  A    between atoms: O_8  and  C_9
REMARK    5  A    between atoms: C_14  and  C_15
REMARK    6  A    between atoms: N_17  and  C_18
REMARK    7  A    between atoms: C_18  and  C_19
REMARK    8  A    between atoms: N_27  and  C_28
REMARK                            x       y       z     vdW  Elec       q    Type
REMARK                         _______ _______ _______ _____ _____    ______ ____
ROOT
ATOM      1  C   UNL     1      38.390   4.095  16.926  0.00  0.00    +0.000 A 
ATOM      2  C   UNL     1      38.550   4.806  18.114  0.00  0.00    +0.000 A 
ATOM      3  C   UNL     1      39.459   5.837  18.215  0.00  0.00    +0.000 A 
ATOM      4  C   UNL     1      40.202   6.138  17.092  0.00  0.00    +0.000 A 
ATOM      5  C   UNL     1      40.044   5.431  15.910  0.00  0.00    +0.000 A 
ATOM      6  C   UNL     1      39.139   4.405  15.811  0.00  0.00    +0.000 A 
ENDROOT
BRANCH   6   7
ATOM      7  C   UNL     1      38.966   3.664  14.573  0.00  0.00    +0.000 C 
ATOM      8  O   UNL     1      38.452   4.201  13.580  0.00  0.00    +0.000 OA
ATOM      9  N   UNL     1      39.371   2.300  14.439  0.00  0.00    +0.000 NA
BRANCH   9  10
ATOM     10  C   UNL     1      39.183   1.581  13.174  0.00  0.00    +0.000 C 
BRANCH  10  11
ATOM     11  C   UNL     1      39.744   0.211  13.368  0.00  0.00    +0.000 A 
ATOM     12  C   UNL     1      40.269  -0.185  14.590  0.00  0.00    +0.000 A 
ATOM     13  C   UNL     1      40.791  -1.450  14.754  0.00  0.00    +0.000 A 
ATOM     14  C   UNL     1      40.815  -2.365  13.729  0.00  0.00    +0.000 A 
ATOM     15  C   UNL     1      40.301  -1.995  12.511  0.00  0.00    +0.000 A 
ATOM     16  C   UNL     1      39.785  -0.732  12.363  0.00  0.00    +0.000 A 
ENDBRANCH  10  11
ENDBRANCH   9  10
ENDBRANCH   6   7
BRANCH   1  17
ATOM     17  O   UNL     1      37.474   3.046  16.802  0.00  0.00    +0.000 OA
BRANCH  17  18
ATOM     18  C   UNL     1      36.205   3.259  16.219  0.00  0.00    +0.000 C 
BRANCH  18  19
ATOM     19  C   UNL     1      35.347   2.064  16.400  0.00  0.00    +0.000 C 
ATOM     20  O   UNL     1      34.118   2.181  16.625  0.00  0.00    +0.000 OA
BRANCH  19  24
ATOM     21  C   UNL     1      37.162  -2.285  14.578  0.00  0.00    +0.000 C 
ATOM     22  C   UNL     1      36.728  -1.236  15.541  0.00  0.00    +0.000 A 
ATOM     23  C   UNL     1      36.204   0.008  15.177  0.00  0.00    +0.000 A 
ATOM     24  C   UNL     1      35.910   0.725  16.322  0.00  0.00    +0.000 A 
ATOM     25  C   UNL     1      36.263  -0.102  17.378  0.00  0.00    +0.000 A 
ATOM     26  C   UNL     1      36.126   0.246  18.824  0.00  0.00    +0.000 C 
ATOM     27  N   UNL     1      36.747  -1.265  16.891  0.00  0.00    +0.000 N 
BRANCH  27  28
ATOM     28  C   UNL     1      37.235  -2.420  17.635  0.00  0.00    +0.000 C 
ATOM     29  C   UNL     1      38.674  -2.838  17.433  0.00  0.00    +0.000 C 
ATOM     30  C   UNL     1      38.235  -2.127  18.729  0.00  0.00    +0.000 C 
ENDBRANCH  27  28
ENDBRANCH  19  24
ENDBRANCH  18  19
ENDBRANCH  17  18
ENDBRANCH   1  17
TORSDOF 8
ENDMDL
MODEL 3
REMARK VINA RESULT:      -7.3      3.668      5.119
REMARK  Name = 
REMARK  8 active torsions:
REMARK  status: ('A' for Active; 'I' for Inactive)
REMARK    1  A    between atoms: C_4  and  C_5
REMARK    2  A    between atoms: C_5  and  C_7
REMARK    3  A    between atoms: C_7  and  O_8
REMARK    4  A    between atoms: O_8  and  C_9
REMARK    5  A    between atoms: C_14  and  C_15
REMARK    6  A    between atoms: N_17  and  C_18
REMARK    7  A    between atoms: C_18  and  C_19
REMARK    8  A    between atoms: N_27  and  C_28
REMARK                            x       y       z     vdW  Elec       q    Type
REMARK                         _______ _______ _______ _____ _____    ______ ____
ROOT
ATOM      1  C   UNL     1      37.507   3.343  14.870  0.00  0.00    +0.000 A 
ATOM      2  C   UNL     1      37.546   2.461  13.793  0.00  0.00    +0.000 A 
ATOM      3  C   UNL     1      38.643   2.392  12.962  0.00  0.00    +0.000 A 
ATOM      4  C   UNL     1      39.702   3.233  13.241  0.00  0.00    +0.000 A 
ATOM      5  C   UNL     1      39.664   4.112  14.312  0.00  0.00    +0.000 A 
ATOM      6  C   UNL     1      38.571   4.179  15.139  0.00  0.00    +0.000 A 
ENDROOT
BRANCH   6   7
ATOM      7  C   UNL     1      38.528   5.095  16.266  0.00  0.00    +0.000 C 
ATOM      8  O   UNL     1      38.020   6.220  16.148  0.00  0.00    +0.000 OA
ATOM      9  N   UNL     1      39.060   4.752  17.547  0.00  0.00    +0.000 NA
BRANCH   9  10
ATOM     10  C   UNL     1      38.999   5.700  18.665  0.00  0.00    +0.000 C 
BRANCH  10  11
ATOM     11  C   UNL     1      40.404   6.114  18.956  0.00  0.00    +0.000 A 
ATOM     12  C   UNL     1      40.832   6.341  20.257  0.00  0.00    +0.000 A 
ATOM     13  C   UNL     1      42.129   6.730  20.513  0.00  0.00    +0.000 A 
ATOM     14  C   UNL     1      43.047   6.907  19.506  0.00  0.00    +0.000 A 
ATOM     15  C   UNL     1      42.646   6.687  18.211  0.00  0.00    +0.000 A 
ATOM     16  C   UNL     1      41.351   6.301  17.972  0.00  0.00    +0.000 A 
ENDBRANCH  10  11
ENDBRANCH   9  10
ENDBRANCH   6   7
BRANCH   1  17
ATOM     17  O   UNL     1      36.404   3.429  15.725  0.00  0.00    +0.000 OA
BRANCH  17  18
ATOM     18  C   UNL     1      36.348   2.664  16.911  0.00  0.00    +0.000 C 
BRANCH  18  19
ATOM     19  C   UNL     1      35.452   1.496  16.730  0.00  0.00    +0.000 C 
ATOM     20  O   UNL     1      34.205   1.634  16.740  0.00  0.00    +0.000 OA
BRANCH  19  24
ATOM     21  C   UNL     1      37.084  -2.754  14.539  0.00  0.00    +0.000 C 
ATOM     22  C   UNL     1      36.737  -1.756  15.588  0.00  0.00    +0.000 A 
ATOM     23  C   UNL     1      36.194  -0.494  15.334  0.00  0.00    +0.000 A 
ATOM     24  C   UNL     1      35.998   0.162  16.536  0.00  0.00    +0.000 A 
ATOM     25  C   UNL     1      36.430  -0.721  17.514  0.00  0.00    +0.000 A 
ATOM     26  C   UNL     1      36.413  -0.450  18.983  0.00  0.00    +0.000 C 
ATOM     27  N   UNL     1      36.866  -1.857  16.928  0.00  0.00    +0.000 N 
BRANCH  27  28
ATOM     28  C   UNL     1      37.405  -3.051  17.569  0.00  0.00    +0.000 C 
ATOM     29  C   UNL     1      38.817  -3.465  17.224  0.00  0.00    +0.000 C 
ATOM     30  C   UNL     1      38.496  -2.819  18.587  0.00  0.00    +0.000 C 
ENDBRANCH  27  28
ENDBRANCH  19  24
ENDBRANCH  18  19
ENDBRANCH  17  18
ENDBRANCH   1  17
TORSDOF 8
ENDMDL
MODEL 4
REMARK VINA RESULT:      -7.1      3.227      5.161
REMARK  Name = 
REMARK  8 active torsions:
REMARK  status: ('A' for Active; 'I' for Inactive)
REMARK    1  A    between atoms: C_4  and  C_5
REMARK    2  A    between atoms: C_5  and  C_7
REMARK    3  A    between atoms: C_7  and  O_8
REMARK    4  A    between atoms: O_8  and  C_9
REMARK    5  A    between atoms: C_14  and  C_15
REMARK    6  A    between atoms: N_17  and  C_18
REMARK    7  A    between atoms: C_18  and  C_19
REMARK    8  A    between atoms: N_27  and  C_28
REMARK                            x       y       z     vdW  Elec       q    Type
REMARK                         _______ _______ _______ _____ _____    ______ ____
ROOT
ATOM      1  C   UNL     1      37.328   1.291  15.782  0.00  0.00    +0.000 A 
ATOM      2  C   UNL     1      36.474   0.227  16.065  0.00  0.00    +0.000 A 
ATOM      3  C   UNL     1      35.172   0.440  16.463  0.00  0.00    +0.000 A 
ATOM      4  C   UNL     1      34.748   1.750  16.568  0.00  0.00    +0.000 A 
ATOM      5  C   UNL     1      35.598   2.809  16.288  0.00  0.00    +0.000 A 
ATOM      6  C   UNL     1      36.894   2.595  15.892  0.00  0.00    +0.000 A 
ENDROOT
BRANCH   6   7
ATOM      7  C   UNL     1      37.787   3.701  15.593  0.00  0.00    +0.000 C 
ATOM      8  O   UNL     1      37.846   4.176  14.448  0.00  0.00    +0.000 OA
ATOM      9  N   UNL     1      38.631   4.289  16.585  0.00  0.00    +0.000 NA
BRANCH   9  10
ATOM     10  C   UNL     1      39.521   5.406  16.249  0.00  0.00    +0.000 C 
BRANCH  10  11
ATOM     11  C   UNL     1      40.122   5.880  17.531  0.00  0.00    +0.000 A 
ATOM     12  C   UNL     1      39.353   6.022  18.677  0.00  0.00    +0.000 A 
ATOM     13  C   UNL     1      39.918   6.467  19.853  0.00  0.00    +0.000 A 
ATOM     14  C   UNL     1      41.252   6.785  19.943  0.00  0.00    +0.000 A 
ATOM     15  C   UNL     1      42.033   6.652  18.821  0.00  0.00    +0.000 A 
ATOM     16  C   UNL     1      41.455   6.208  17.658  0.00  0.00    +0.000 A 
ENDBRANCH  10  11
ENDBRANCH   9  10
ENDBRANCH   6   7
BRANCH   1  17
ATOM     17  O   UNL     1      38.653   1.098  15.378  0.00  0.00    +0.000 OA
BRANCH  17  18
ATOM     18  C   UNL     1      38.947   0.489  14.137  0.00  0.00    +0.000 C 
BRANCH  18  19
ATOM     19  C   UNL     1      39.679  -0.783  14.348  0.00  0.00    +0.000 C 
ATOM     20  O   UNL     1      40.810  -0.968  13.839  0.00  0.00    +0.000 OA
BRANCH  19  24
ATOM     21  C   UNL     1      38.570  -3.799  18.247  0.00  0.00    +0.000 C 
ATOM     22  C   UNL     1      38.581  -3.221  16.876  0.00  0.00    +0.000 A 
ATOM     23  C   UNL     1      39.329  -2.105  16.490  0.00  0.00    +0.000 A 
ATOM     24  C   UNL     1      39.100  -1.850  15.151  0.00  0.00    +0.000 A 
ATOM     25  C   UNL     1      38.205  -2.825  14.736  0.00  0.00    +0.000 A 
ATOM     26  C   UNL     1      37.660  -2.955  13.351  0.00  0.00    +0.000 C 
ATOM     27  N   UNL     1      37.910  -3.631  15.778  0.00  0.00    +0.000 N 
BRANCH  27  28
ATOM     28  C   UNL     1      37.017  -4.784  15.800  0.00  0.00    +0.000 C 
ATOM     29  C   UNL     1      35.645  -4.607  16.410  0.00  0.00    +0.000 C 
ATOM     30  C   UNL     1      35.820  -4.710  14.881  0.00  0.00    +0.000 C 
ENDBRANCH  27  28
ENDBRANCH  19  24
ENDBRANCH  18  19
ENDBRANCH  17  18
ENDBRANCH   1  17
TORSDOF 8
ENDMDL
MODEL 5
REMARK VINA RESULT:      -7.0      2.819      6.477
REMARK  Name = 
REMARK  8 active torsions:
REMARK  status: ('A' for Active; 'I' for Inactive)
REMARK    1  A    between atoms: C_4  and  C_5
REMARK    2  A    between atoms: C_5  and  C_7
REMARK    3  A    between atoms: C_7  and  O_8
REMARK    4  A    between atoms: O_8  and  C_9
REMARK    5  A    between atoms: C_14  and  C_15
REMARK    6  A    between atoms: N_17  and  C_18
REMARK    7  A    between atoms: C_18  and  C_19
REMARK    8  A    between atoms: N_27  and  C_28
REMARK                            x       y       z     vdW  Elec       q    Type
REMARK                         _______ _______ _______ _____ _____    ______ ____
ROOT
ATOM      1  C   UNL     1      37.042  -0.608  16.623  0.00  0.00    +0.000 A 
ATOM      2  C   UNL     1      36.549  -1.723  17.297  0.00  0.00    +0.000 A 
ATOM      3  C   UNL     1      35.221  -1.814  17.657  0.00  0.00    +0.000 A 
ATOM      4  C   UNL     1      34.401  -0.756  17.321  0.00  0.00    +0.000 A 
ATOM      5  C   UNL     1      34.891   0.354  16.651  0.00  0.00    +0.000 A 
ATOM      6  C   UNL     1      36.212   0.443  16.293  0.00  0.00    +0.000 A 
ENDROOT
BRANCH   6   7
ATOM      7  C   UNL     1      36.730   1.602  15.587  0.00  0.00    +0.000 C 
ATOM      8  O   UNL     1      36.539   1.739  14.368  0.00  0.00    +0.000 OA
ATOM      9  N   UNL     1      37.475   2.627  16.248  0.00  0.00    +0.000 NA
BRANCH   9  10
ATOM     10  C   UNL     1      37.983   3.785  15.504  0.00  0.00    +0.000 C 
BRANCH  10  11
ATOM     11  C   UNL     1      38.770   4.608  16.470  0.00  0.00    +0.000 A 
ATOM     12  C   UNL     1      39.836   5.389  16.049  0.00  0.00    +0.000 A 
ATOM     13  C   UNL     1      40.559   6.139  16.951  0.00  0.00    +0.000 A 
ATOM     14  C   UNL     1      40.261   6.147  18.293  0.00  0.00    +0.000 A 
ATOM     15  C   UNL     1      39.210   5.381  18.733  0.00  0.00    +0.000 A 
ATOM     16  C   UNL     1      38.500   4.640  17.822  0.00  0.00    +0.000 A 
ENDBRANCH  10  11
ENDBRANCH   9  10
ENDBRANCH   6   7
BRANCH   1  17
ATOM     17  O   UNL     1      38.384  -0.495  16.249  0.00  0.00    +0.000 OA
BRANCH  17  18
ATOM     18  C   UNL     1      39.134  -1.639  15.893  0.00  0.00    +0.000 C 
BRANCH  18  19
ATOM     19  C   UNL     1      40.159  -1.289  14.882  0.00  0.00    +0.000 C 
ATOM     20  O   UNL     1      41.176  -2.006  14.720  0.00  0.00    +0.000 OA
BRANCH  19  24
ATOM     21  C   UNL     1      40.764   3.361  12.998  0.00  0.00    +0.000 C 
ATOM     22  C   UNL     1      40.258   1.973  13.183  0.00  0.00    +0.000 A 
ATOM     23  C   UNL     1      40.696   1.093  14.176  0.00  0.00    +0.000 A 
ATOM     24  C   UNL     1      40.013  -0.103  14.052  0.00  0.00    +0.000 A 
ATOM     25  C   UNL     1      39.160   0.069  12.972  0.00  0.00    +0.000 A 
ATOM     26  C   UNL     1      38.213  -0.964  12.454  0.00  0.00    +0.000 C 
ATOM     27  N   UNL     1      39.321   1.312  12.470  0.00  0.00    +0.000 N 
BRANCH  27  28
ATOM     28  C   UNL     1      38.632   1.922  11.338  0.00  0.00    +0.000 C 
ATOM     29  C   UNL     1      39.454   2.296  10.126  0.00  0.00    +0.000 C 
ATOM     30  C   UNL     1      38.519   1.070  10.096  0.00  0.00    +0.000 C 
ENDBRANCH  27  28
ENDBRANCH  19  24
ENDBRANCH  18  19
ENDBRANCH  17  18
ENDBRANCH   1  17
TORSDOF 8
ENDMDL
MODEL 6
REMARK VINA RESULT:      -6.8      2.438      6.180
REMARK  Name = 
REMARK  8 active torsions:
REMARK  status: ('A' for Active; 'I' for Inactive)
REMARK    1  A    between atoms: C_4  and  C_5
REMARK    2  A    between atoms: C_5  and  C_7
REMARK    3  A    between atoms: C_7  and  O_8
REMARK    4  A    between atoms: O_8  and  C_9
REMARK    5  A    between atoms: C_14  and  C_15
REMARK    6  A    between atoms: N_17  and  C_18
REMARK    7  A    between atoms: C_18  and  C_19
REMARK    8  A    between atoms: N_27  and  C_28
REMARK                            x       y       z     vdW  Elec       q    Type
REMARK                         _______ _______ _______ _____ _____    ______ ____
ROOT
ATOM      1  C   UNL     1      36.086  -4.270  16.381  0.00  0.00    +0.000 A 
ATOM      2  C   UNL     1      35.917  -5.648  16.267  0.00  0.00    +0.000 A 
ATOM      3  C   UNL     1      34.844  -6.185  15.589  0.00  0.00    +0.000 A 
ATOM      4  C   UNL     1      33.945  -5.302  15.028  0.00  0.00    +0.000 A 
ATOM      5  C   UNL     1      34.111  -3.930  15.141  0.00  0.00    +0.000 A 
ATOM      6  C   UNL     1      35.180  -3.398  15.816  0.00  0.00    +0.000 A 
ENDROOT
BRANCH   6   7
ATOM      7  C   UNL     1      35.363  -1.961  15.934  0.00  0.00    +0.000 C 
ATOM      8  O   UNL     1      34.859  -1.334  16.879  0.00  0.00    +0.000 OA
ATOM      9  N   UNL     1      36.118  -1.208  14.983  0.00  0.00    +0.000 NA
BRANCH   9  10
ATOM     10  C   UNL     1      36.284   0.242  15.132  0.00  0.00    +0.000 C 
BRANCH  10  11
ATOM     11  C   UNL     1      37.432   0.637  14.264  0.00  0.00    +0.000 A 
ATOM     12  C   UNL     1      38.662   0.979  14.809  0.00  0.00    +0.000 A 
ATOM     13  C   UNL     1      39.713   1.349  13.999  0.00  0.00    +0.000 A 
ATOM     14  C   UNL     1      39.593   1.395  12.630  0.00  0.00    +0.000 A 
ATOM     15  C   UNL     1      38.386   1.061  12.068  0.00  0.00    +0.000 A 
ATOM     16  C   UNL     1      37.349   0.695  12.890  0.00  0.00    +0.000 A 
ENDBRANCH  10  11
ENDBRANCH   9  10
ENDBRANCH   6   7
BRANCH   1  17
ATOM     17  O   UNL     1      37.167  -3.705  17.064  0.00  0.00    +0.000 OA
BRANCH  17  18
ATOM     18  C   UNL     1      38.488  -3.874  16.592  0.00  0.00    +0.000 C 
BRANCH  18  19
ATOM     19  C   UNL     1      39.062  -2.568  16.187  0.00  0.00    +0.000 C 
ATOM     20  O   UNL     1      38.781  -1.518  16.814  0.00  0.00    +0.000 OA
BRANCH  19  24
ATOM     21  C   UNL     1      43.232  -1.931  13.405  0.00  0.00    +0.000 C 
ATOM     22  C   UNL     1      41.813  -2.193  13.773  0.00  0.00    +0.000 A 
ATOM     23  C   UNL     1      41.319  -2.194  15.081  0.00  0.00    +0.000 A 
ATOM     24  C   UNL     1      39.965  -2.471  15.050  0.00  0.00    +0.000 A 
ATOM     25  C   UNL     1      39.651  -2.637  13.710  0.00  0.00    +0.000 A 
ATOM     26  C   UNL     1      38.290  -2.953  13.179  0.00  0.00    +0.000 C 
ATOM     27  N   UNL     1      40.765  -2.466  12.966  0.00  0.00    +0.000 N 
BRANCH  27  28
ATOM     28  C   UNL     1      40.902  -2.547  11.517  0.00  0.00    +0.000 C 
ATOM     29  C   UNL     1      39.910  -1.787  10.667  0.00  0.00    +0.000 C 
ATOM     30  C   UNL     1      41.359  -1.284  10.825  0.00  0.00    +0.000 C 
ENDBRANCH  27  28
ENDBRANCH  19  24
ENDBRANCH  18  19
ENDBRANCH  17  18
ENDBRANCH   1  17
TORSDOF 8
ENDMDL
MODEL 7
REMARK VINA RESULT:      -6.8      2.639      6.538
REMARK  Name = 
REMARK  8 active torsions:
REMARK  status: ('A' for Active; 'I' for Inactive)
REMARK    1  A    between atoms: C_4  and  C_5
REMARK    2  A    between atoms: C_5  and  C_7
REMARK    3  A    between atoms: C_7  and  O_8
REMARK    4  A    between atoms: O_8  and  C_9
REMARK    5  A    between atoms: C_14  and  C_15
REMARK    6  A    between atoms: N_17  and  C_18
REMARK    7  A    between atoms: C_18  and  C_19
REMARK    8  A    between atoms: N_27  and  C_28
REMARK                            x       y       z     vdW  Elec       q    Type
REMARK                         _______ _______ _______ _____ _____    ______ ____
ROOT
ATOM      1  C   UNL     1      36.981  -0.725  16.808  0.00  0.00    +0.000 A 
ATOM      2  C   UNL     1      36.373  -1.752  17.527  0.00  0.00    +0.000 A 
ATOM      3  C   UNL     1      35.021  -1.739  17.792  0.00  0.00    +0.000 A 
ATOM      4  C   UNL     1      34.293  -0.668  17.316  0.00  0.00    +0.000 A 
ATOM      5  C   UNL     1      34.896   0.355  16.601  0.00  0.00    +0.000 A 
ATOM      6  C   UNL     1      36.243   0.341  16.338  0.00  0.00    +0.000 A 
ENDROOT
BRANCH   6   7
ATOM      7  C   UNL     1      36.880   1.408  15.585  0.00  0.00    +0.000 C 
ATOM      8  O   UNL     1      36.994   1.332  14.352  0.00  0.00    +0.000 OA
ATOM      9  N   UNL     1      37.399   2.580  16.217  0.00  0.00    +0.000 NA
BRANCH   9  10
ATOM     10  C   UNL     1      38.036   3.640  15.427  0.00  0.00    +0.000 C 
BRANCH  10  11
ATOM     11  C   UNL     1      38.777   4.509  16.388  0.00  0.00    +0.000 A 
ATOM     12  C   UNL     1      39.819   5.323  15.967  0.00  0.00    +0.000 A 
ATOM     13  C   UNL     1      40.500   6.115  16.864  0.00  0.00    +0.000 A 
ATOM     14  C   UNL     1      40.183   6.137  18.202  0.00  0.00    +0.000 A 
ATOM     15  C   UNL     1      39.155   5.340  18.642  0.00  0.00    +0.000 A 
ATOM     16  C   UNL     1      38.486   4.556  17.735  0.00  0.00    +0.000 A 
ENDBRANCH  10  11
ENDBRANCH   9  10
ENDBRANCH   6   7
BRANCH   1  17
ATOM     17  O   UNL     1      38.351  -0.718  16.528  0.00  0.00    +0.000 OA
BRANCH  17  18
ATOM     18  C   UNL     1      39.022  -1.911  16.179  0.00  0.00    +0.000 C 
BRANCH  18  19
ATOM     19  C   UNL     1      39.416  -1.881  14.750  0.00  0.00    +0.000 C 
ATOM     20  O   UNL     1      38.592  -2.167  13.848  0.00  0.00    +0.000 OA
BRANCH  19  24
ATOM     21  C   UNL     1      44.299  -2.196  13.488  0.00  0.00    +0.000 C 
ATOM     22  C   UNL     1      42.958  -1.622  13.789  0.00  0.00    +0.000 A 
ATOM     23  C   UNL     1      41.837  -2.373  14.154  0.00  0.00    +0.000 A 
ATOM     24  C   UNL     1      40.770  -1.518  14.358  0.00  0.00    +0.000 A 
ATOM     25  C   UNL     1      41.262  -0.246  14.111  0.00  0.00    +0.000 A 
ATOM     26  C   UNL     1      40.467   1.016  14.207  0.00  0.00    +0.000 C 
ATOM     27  N   UNL     1      42.567  -0.330  13.775  0.00  0.00    +0.000 N 
BRANCH  27  28
ATOM     28  C   UNL     1      43.482   0.754  13.436  0.00  0.00    +0.000 C 
ATOM     29  C   UNL     1      43.876   0.921  11.986  0.00  0.00    +0.000 C 
ATOM     30  C   UNL     1      42.887   1.899  12.651  0.00  0.00    +0.000 C 
ENDBRANCH  27  28
ENDBRANCH  19  24
ENDBRANCH  18  19
ENDBRANCH  17  18
ENDBRANCH   1  17
TORSDOF 8
ENDMDL
MODEL 8
REMARK VINA RESULT:      -6.8      2.036      5.604
REMARK  Name = 
REMARK  8 active torsions:
REMARK  status: ('A' for Active; 'I' for Inactive)
REMARK    1  A    between atoms: C_4  and  C_5
REMARK    2  A    between atoms: C_5  and  C_7
REMARK    3  A    between atoms: C_7  and  O_8
REMARK    4  A    between atoms: O_8  and  C_9
REMARK    5  A    between atoms: C_14  and  C_15
REMARK    6  A    between atoms: N_17  and  C_18
REMARK    7  A    between atoms: C_18  and  C_19
REMARK    8  A    between atoms: N_27  and  C_28
REMARK                            x       y       z     vdW  Elec       q    Type
REMARK                         _______ _______ _______ _____ _____    ______ ____
ROOT
ATOM      1  C   UNL     1      35.673  -3.053  16.636  0.00  0.00    +0.000 A 
ATOM      2  C   UNL     1      34.293  -3.069  16.444  0.00  0.00    +0.000 A 
ATOM      3  C   UNL     1      33.725  -3.747  15.387  0.00  0.00    +0.000 A 
ATOM      4  C   UNL     1      34.578  -4.409  14.528  0.00  0.00    +0.000 A 
ATOM      5  C   UNL     1      35.951  -4.394  14.717  0.00  0.00    +0.000 A 
ATOM      6  C   UNL     1      36.515  -3.719  15.770  0.00  0.00    +0.000 A 
ENDROOT
BRANCH   6   7
ATOM      7  C   UNL     1      37.953  -3.703  15.977  0.00  0.00    +0.000 C 
ATOM      8  O   UNL     1      38.469  -4.361  16.893  0.00  0.00    +0.000 OA
ATOM      9  N   UNL     1      38.833  -2.939  15.149  0.00  0.00    +0.000 NA
BRANCH   9  10
ATOM     10  C   UNL     1      40.281  -2.946  15.385  0.00  0.00    +0.000 C 
BRANCH  10  11
ATOM     11  C   UNL     1      40.817  -1.674  14.817  0.00  0.00    +0.000 A 
ATOM     12  C   UNL     1      42.143  -1.564  14.421  0.00  0.00    +0.000 A 
ATOM     13  C   UNL     1      42.627  -0.382  13.904  0.00  0.00    +0.000 A 
ATOM     14  C   UNL     1      41.830   0.728  13.759  0.00  0.00    +0.000 A 
ATOM     15  C   UNL     1      40.515   0.643  14.144  0.00  0.00    +0.000 A 
ATOM     16  C   UNL     1      40.048  -0.541  14.656  0.00  0.00    +0.000 A 
ENDBRANCH  10  11
ENDBRANCH   9  10
ENDBRANCH   6   7
BRANCH   1  17
ATOM     17  O   UNL     1      36.270  -2.372  17.701  0.00  0.00    +0.000 OA
BRANCH  17  18
ATOM     18  C   UNL     1      36.948  -1.151  17.488  0.00  0.00    +0.000 C 
BRANCH  18  19
ATOM     19  C   UNL     1      36.035  -0.155  16.877  0.00  0.00    +0.000 C 
ATOM     20  O   UNL     1      34.962   0.167  17.442  0.00  0.00    +0.000 OA
BRANCH  19  24
ATOM     21  C   UNL     1      36.978   0.530  11.961  0.00  0.00    +0.000 C 
ATOM     22  C   UNL     1      36.790   0.816  13.410  0.00  0.00    +0.000 A 
ATOM     23  C   UNL     1      36.452  -0.142  14.370  0.00  0.00    +0.000 A 
ATOM     24  C   UNL     1      36.362   0.472  15.606  0.00  0.00    +0.000 A 
ATOM     25  C   UNL     1      36.649   1.809  15.376  0.00  0.00    +0.000 A 
ATOM     26  C   UNL     1      36.674   2.874  16.424  0.00  0.00    +0.000 C 
ATOM     27  N   UNL     1      36.902   1.992  14.063  0.00  0.00    +0.000 N 
BRANCH  27  28
ATOM     28  C   UNL     1      37.247   3.231  13.376  0.00  0.00    +0.000 C 
ATOM     29  C   UNL     1      38.447   4.006  13.871  0.00  0.00    +0.000 C 
ATOM     30  C   UNL     1      38.516   3.201  12.557  0.00  0.00    +0.000 C 
ENDBRANCH  27  28
ENDBRANCH  19  24
ENDBRANCH  18  19
ENDBRANCH  17  18
ENDBRANCH   1  17
TORSDOF 8
ENDMDL
MODEL 9
REMARK VINA RESULT:      -6.7      3.123      6.170
REMARK  Name = 
REMARK  8 active torsions:
REMARK  status: ('A' for Active; 'I' for Inactive)
REMARK    1  A    between atoms: C_4  and  C_5
REMARK    2  A    between atoms: C_5  and  C_7
REMARK    3  A    between atoms: C_7  and  O_8
REMARK    4  A    between atoms: O_8  and  C_9
REMARK    5  A    between atoms: C_14  and  C_15
REMARK    6  A    between atoms: N_17  and  C_18
REMARK    7  A    between atoms: C_18  and  C_19
REMARK    8  A    between atoms: N_27  and  C_28
REMARK                            x       y       z     vdW  Elec       q    Type
REMARK                         _______ _______ _______ _____ _____    ______ ____
ROOT
ATOM      1  C   UNL     1      36.648   0.035  15.437  0.00  0.00    +0.000 A 
ATOM      2  C   UNL     1      35.975  -1.077  15.939  0.00  0.00    +0.000 A 
ATOM      3  C   UNL     1      34.932  -0.942  16.830  0.00  0.00    +0.000 A 
ATOM      4  C   UNL     1      34.582   0.340  17.204  0.00  0.00    +0.000 A 
ATOM      5  C   UNL     1      35.251   1.447  16.706  0.00  0.00    +0.000 A 
ATOM      6  C   UNL     1      36.289   1.310  15.819  0.00  0.00    +0.000 A 
ENDROOT
BRANCH   6   7
ATOM      7  C   UNL     1      36.991   2.467  15.290  0.00  0.00    +0.000 C 
ATOM      8  O   UNL     1      36.678   2.950  14.191  0.00  0.00    +0.000 OA
ATOM      9  N   UNL     1      38.062   3.097  15.997  0.00  0.00    +0.000 NA
BRANCH   9  10
ATOM     10  C   UNL     1      38.750   4.264  15.435  0.00  0.00    +0.000 C 
BRANCH  10  11
ATOM     11  C   UNL     1      39.331   5.019  16.585  0.00  0.00    +0.000 A 
ATOM     12  C   UNL     1      40.449   5.825  16.426  0.00  0.00    +0.000 A 
ATOM     13  C   UNL     1      40.980   6.510  17.496  0.00  0.00    +0.000 A 
ATOM     14  C   UNL     1      40.433   6.430  18.755  0.00  0.00    +0.000 A 
ATOM     15  C   UNL     1      39.326   5.639  18.936  0.00  0.00    +0.000 A 
ATOM     16  C   UNL     1      38.809   4.962  17.859  0.00  0.00    +0.000 A 
ENDBRANCH  10  11
ENDBRANCH   9  10
ENDBRANCH   6   7
BRANCH   1  17
ATOM     17  O   UNL     1      37.708  -0.080  14.533  0.00  0.00    +0.000 OA
BRANCH  17  18
ATOM     18  C   UNL     1      37.509  -0.645  13.254  0.00  0.00    +0.000 C 
BRANCH  18  19
ATOM     19  C   UNL     1      38.135  -1.987  13.180  0.00  0.00    +0.000 C 
ATOM     20  O   UNL     1      37.488  -3.018  13.483  0.00  0.00    +0.000 OA
BRANCH  19  24
ATOM     21  C   UNL     1      42.250  -2.391  10.276  0.00  0.00    +0.000 C 
ATOM     22  C   UNL     1      41.382  -2.326  11.484  0.00  0.00    +0.000 A 
ATOM     23  C   UNL     1      39.995  -2.154  11.456  0.00  0.00    +0.000 A 
ATOM     24  C   UNL     1      39.518  -2.141  12.754  0.00  0.00    +0.000 A 
ATOM     25  C   UNL     1      40.633  -2.305  13.560  0.00  0.00    +0.000 A 
ATOM     26  C   UNL     1      40.613  -2.354  15.054  0.00  0.00    +0.000 C 
ATOM     27  N   UNL     1      41.733  -2.414  12.785  0.00  0.00    +0.000 N 
BRANCH  27  28
ATOM     28  C   UNL     1      43.117  -2.599  13.205  0.00  0.00    +0.000 C 
ATOM     29  C   UNL     1      44.135  -1.573  12.764  0.00  0.00    +0.000 C 
ATOM     30  C   UNL     1      43.637  -1.612  14.223  0.00  0.00    +0.000 C 
ENDBRANCH  27  28
ENDBRANCH  19  24
ENDBRANCH  18  19
ENDBRANCH  17  18
ENDBRANCH   1  17
TORSDOF 8
ENDMDL
MODEL 10
REMARK VINA RESULT:      -6.7      2.324      6.248
REMARK  Name = 
REMARK  8 active torsions:
REMARK  status: ('A' for Active; 'I' for Inactive)
REMARK    1  A    between atoms: C_4  and  C_5
REMARK    2  A    between atoms: C_5  and  C_7
REMARK    3  A    between atoms: C_7  and  O_8
REMARK    4  A    between atoms: O_8  and  C_9
REMARK    5  A    between atoms: C_14  and  C_15
REMARK    6  A    between atoms: N_17  and  C_18
REMARK    7  A    between atoms: C_18  and  C_19
REMARK    8  A    between atoms: N_27  and  C_28
REMARK                            x       y       z     vdW  Elec       q    Type
REMARK                         _______ _______ _______ _____ _____    ______ ____
ROOT
ATOM      1  C   UNL     1      37.359  -1.325  17.091  0.00  0.00    +0.000 A 
ATOM      2  C   UNL     1      38.159  -2.287  17.704  0.00  0.00    +0.000 A 
ATOM      3  C   UNL     1      38.097  -2.510  19.062  0.00  0.00    +0.000 A 
ATOM      4  C   UNL     1      37.211  -1.743  19.790  0.00  0.00    +0.000 A 
ATOM      5  C   UNL     1      36.415  -0.785  19.182  0.00  0.00    +0.000 A 
ATOM      6  C   UNL     1      36.477  -0.564  17.829  0.00  0.00    +0.000 A 
ENDROOT
BRANCH   6   7
ATOM      7  C   UNL     1      35.641   0.435  17.185  0.00  0.00    +0.000 C 
ATOM      8  O   UNL     1      34.452   0.194  16.925  0.00  0.00    +0.000 OA
ATOM      9  N   UNL     1      36.139   1.726  16.824  0.00  0.00    +0.000 NA
BRANCH   9  10
ATOM     10  C   UNL     1      35.268   2.712  16.175  0.00  0.00    +0.000 C 
BRANCH  10  11
ATOM     11  C   UNL     1      35.912   3.069  14.876  0.00  0.00    +0.000 A 
ATOM     12  C   UNL     1      36.727   2.168  14.206  0.00  0.00    +0.000 A 
ATOM     13  C   UNL     1      37.322   2.512  13.012  0.00  0.00    +0.000 A 
ATOM     14  C   UNL     1      37.136   3.746  12.436  0.00  0.00    +0.000 A 
ATOM     15  C   UNL     1      36.333   4.654  13.081  0.00  0.00    +0.000 A 
ATOM     16  C   UNL     1      35.748   4.296  14.271  0.00  0.00    +0.000 A 
ENDBRANCH  10  11
ENDBRANCH   9  10
ENDBRANCH   6   7
BRANCH   1  17
ATOM     17  O   UNL     1      37.405  -1.082  15.715  0.00  0.00    +0.000 OA
BRANCH  17  18
ATOM     18  C   UNL     1      36.690  -1.900  14.812  0.00  0.00    +0.000 C 
BRANCH  18  19
ATOM     19  C   UNL     1      37.622  -2.564  13.869  0.00  0.00    +0.000 C 
ATOM     20  O   UNL     1      37.465  -3.767  13.549  0.00  0.00    +0.000 OA
BRANCH  19  24
ATOM     21  C   UNL     1      40.347   0.538  10.958  0.00  0.00    +0.000 C 
ATOM     22  C   UNL     1      39.994  -0.457  12.007  0.00  0.00    +0.000 A 
ATOM     23  C   UNL     1      38.700  -0.925  12.254  0.00  0.00    +0.000 A 
ATOM     24  C   UNL     1      38.742  -1.837  13.293  0.00  0.00    +0.000 A 
ATOM     25  C   UNL     1      40.075  -1.910  13.668  0.00  0.00    +0.000 A 
ATOM     26  C   UNL     1      40.613  -2.774  14.762  0.00  0.00    +0.000 C 
ATOM     27  N   UNL     1      40.803  -1.082  12.889  0.00  0.00    +0.000 N 
BRANCH  27  28
ATOM     28  C   UNL     1      42.241  -0.840  12.929  0.00  0.00    +0.000 C 
ATOM     29  C   UNL     1      42.722   0.494  13.452  0.00  0.00    +0.000 C 
ATOM     30  C   UNL     1      42.864  -0.784  14.303  0.00  0.00    +0.000 C 
ENDBRANCH  27  28
ENDBRANCH  19  24
ENDBRANCH  18  19
ENDBRANCH  17  18
ENDBRANCH   1  17
TORSDOF 8
ENDMDL
