MODEL 1
REMARK VINA RESULT:      -7.4      0.000      0.000
REMARK  Name = 
REMARK  7 active torsions:
REMARK  status: ('A' for Active; 'I' for Inactive)
REMARK    1  A    between atoms: C_3  and  C_4
REMARK    2  A    between atoms: C_10  and  C_11
REMARK    3  A    between atoms: C_15  and  O_16
REMARK    4  A    between atoms: O_16  and  C_17
REMARK    5  A    between atoms: C_17  and  C_18
REMARK    6  A    between atoms: N_27  and  C_28
REMARK    7  A    between atoms: C_28  and  C_29
REMARK                            x       y       z     vdW  Elec       q    Type
REMARK                         _______ _______ _______ _____ _____    ______ ____
ROOT
ATOM      1  C   UNL     1      39.380   3.898  13.313  0.00  0.00    +0.000 C 
ATOM      2  C   UNL     1      38.405   3.048  14.052  0.00  0.00    +0.000 A 
ATOM      3  C   UNL     1      38.197   1.691  13.937  0.00  0.00    +0.000 A 
ATOM      4  C   UNL     1      37.198   1.342  14.815  0.00  0.00    +0.000 A 
ATOM      5  C   UNL     1      36.566   0.160  15.147  0.00  0.00    +0.000 A 
ATOM      6  C   UNL     1      35.569   0.159  16.103  0.00  0.00    +0.000 A 
ATOM      7  C   UNL     1      35.190   1.325  16.737  0.00  0.00    +0.000 A 
ATOM      8  C   UNL     1      35.828   2.499  16.396  0.00  0.00    +0.000 A 
ATOM      9  C   UNL     1      36.825   2.509  15.442  0.00  0.00    +0.000 A 
ATOM     10  N   UNL     1      37.554   3.540  14.982  0.00  0.00    +0.000 N 
ENDROOT
BRANCH   3  11
ATOM     11  C   UNL     1      38.908   0.795  13.048  0.00  0.00    +0.000 C 
ATOM     12  O   UNL     1      38.535   0.868  11.820  0.00  0.00    +0.000 OA
ATOM     13  N   UNL     1      39.886  -0.051  13.477  0.00  0.00    +0.000 N 
ATOM     14  C   UNL     1      40.384  -0.227  14.790  0.00  0.00    +0.000 C 
ATOM     15  C   UNL     1      40.363  -1.729  14.985  0.00  0.00    +0.000 C 
ATOM     16  C   UNL     1      40.147  -2.348  13.635  0.00  0.00    +0.000 C 
ATOM     17  C   UNL     1      40.764  -1.073  12.742  0.00  0.00    +0.000 C 
BRANCH  17  18
ATOM     18  C   UNL     1      39.744  -1.363  11.465  0.00  0.00    +0.000 C 
ATOM     19  O   UNL     1      39.378  -2.703  11.672  0.00  0.00    +0.000 OA
ENDBRANCH  17  18
ENDBRANCH   3  11
BRANCH   6  20
ATOM     20  O   UNL     1      34.922  -1.008  16.453  0.00  0.00    +0.000 OA
BRANCH  20  21
ATOM     21  C   UNL     1      35.207  -1.674  17.673  0.00  0.00    +0.000 C 
BRANCH  21  22
ATOM     22  C   UNL     1      36.392  -2.528  17.511  0.00  0.00    +0.000 A 
ATOM     23  C   UNL     1      36.428  -3.528  16.593  0.00  0.00    +0.000 A 
ATOM     24  C   UNL     1      37.539  -4.342  16.429  0.00  0.00    +0.000 A 
ATOM     25  C   UNL     1      38.643  -4.121  17.230  0.00  0.00    +0.000 A 
ATOM     26  C   UNL     1      38.646  -3.115  18.174  0.00  0.00    +0.000 A 
ATOM     27  C   UNL     1      37.528  -2.334  18.305  0.00  0.00    +0.000 A 
ENDBRANCH  21  22
ENDBRANCH  20  21
ENDBRANCH   6  20
BRANCH  10  28
ATOM     28  C   UNL     1      37.461   4.928  15.392  0.00  0.00    +0.000 C 
BRANCH  28  29
ATOM     29  C   UNL     1      38.416   5.223  16.476  0.00  0.00    +0.000 A 
ATOM     30  C   UNL     1      38.266   4.835  17.786  0.00  0.00    +0.000 A 
ATOM     31  C   UNL     1      39.378   5.308  18.494  0.00  0.00    +0.000 A 
ATOM     32  C   UNL     1      40.136   5.964  17.530  0.00  0.00    +0.000 A 
ATOM     33  O   UNL     1      39.532   5.889  16.358  0.00  0.00    +0.000 OA
ENDBRANCH  28  29
ENDBRANCH  10  28
TORSDOF 7
ENDMDL
MODEL 2
REMARK VINA RESULT:      -7.2      1.678      6.096
REMARK  Name = 
REMARK  7 active torsions:
REMARK  status: ('A' for Active; 'I' for Inactive)
REMARK    1  A    between atoms: C_3  and  C_4
REMARK    2  A    between atoms: C_10  and  C_11
REMARK    3  A    between atoms: C_15  and  O_16
REMARK    4  A    between atoms: O_16  and  C_17
REMARK    5  A    between atoms: C_17  and  C_18
REMARK    6  A    between atoms: N_27  and  C_28
REMARK    7  A    between atoms: C_28  and  C_29
REMARK                            x       y       z     vdW  Elec       q    Type
REMARK                         _______ _______ _______ _____ _____    ______ ____
ROOT
ATOM      1  C   UNL     1      37.104  -1.513  13.894  0.00  0.00    +0.000 C 
ATOM      2  C   UNL     1      37.491  -0.139  14.321  0.00  0.00    +0.000 A 
ATOM      3  C   UNL     1      38.578   0.604  13.919  0.00  0.00    +0.000 A 
ATOM      4  C   UNL     1      38.529   1.812  14.575  0.00  0.00    +0.000 A 
ATOM      5  C   UNL     1      39.320   2.944  14.587  0.00  0.00    +0.000 A 
ATOM      6  C   UNL     1      38.974   4.015  15.388  0.00  0.00    +0.000 A 
ATOM      7  C   UNL     1      37.846   3.975  16.182  0.00  0.00    +0.000 A 
ATOM      8  C   UNL     1      37.065   2.839  16.162  0.00  0.00    +0.000 A 
ATOM      9  C   UNL     1      37.403   1.764  15.365  0.00  0.00    +0.000 A 
ATOM     10  N   UNL     1      36.775   0.586  15.211  0.00  0.00    +0.000 N 
ENDROOT
BRANCH   3  11
ATOM     11  C   UNL     1      39.591   0.186  12.971  0.00  0.00    +0.000 C 
ATOM     12  O   UNL     1      39.422   0.648  11.784  0.00  0.00    +0.000 OA
ATOM     13  N   UNL     1      40.631  -0.627  13.310  0.00  0.00    +0.000 N 
ATOM     14  C   UNL     1      40.927  -1.198  14.571  0.00  0.00    +0.000 C 
ATOM     15  C   UNL     1      41.171  -2.659  14.254  0.00  0.00    +0.000 C 
ATOM     16  C   UNL     1      41.310  -2.773  12.764  0.00  0.00    +0.000 C 
ATOM     17  C   UNL     1      41.804  -1.196  12.501  0.00  0.00    +0.000 C 
BRANCH  17  18
ATOM     18  C   UNL     1      41.091  -1.133  11.004  0.00  0.00    +0.000 C 
ATOM     19  O   UNL     1      41.074  -2.485  10.623  0.00  0.00    +0.000 OA
ENDBRANCH  17  18
ENDBRANCH   3  11
BRANCH   6  20
ATOM     20  O   UNL     1      39.747   5.158  15.418  0.00  0.00    +0.000 OA
BRANCH  20  21
ATOM     21  C   UNL     1      39.372   6.283  16.196  0.00  0.00    +0.000 C 
BRANCH  21  22
ATOM     22  C   UNL     1      40.182   6.335  17.422  0.00  0.00    +0.000 A 
ATOM     23  C   UNL     1      39.619   6.234  18.653  0.00  0.00    +0.000 A 
ATOM     24  C   UNL     1      40.369   6.281  19.817  0.00  0.00    +0.000 A 
ATOM     25  C   UNL     1      41.739   6.435  19.713  0.00  0.00    +0.000 A 
ATOM     26  C   UNL     1      42.350   6.541  18.481  0.00  0.00    +0.000 A 
ATOM     27  C   UNL     1      41.572   6.491  17.355  0.00  0.00    +0.000 A 
ENDBRANCH  21  22
ENDBRANCH  20  21
ENDBRANCH   6  20
BRANCH  10  28
ATOM     28  C   UNL     1      35.557   0.153  15.869  0.00  0.00    +0.000 C 
BRANCH  28  29
ATOM     29  C   UNL     1      35.848  -0.415  17.198  0.00  0.00    +0.000 A 
ATOM     30  C   UNL     1      35.507   0.168  18.395  0.00  0.00    +0.000 A 
ATOM     31  C   UNL     1      35.957  -0.678  19.417  0.00  0.00    +0.000 A 
ATOM     32  C   UNL     1      36.551  -1.737  18.739  0.00  0.00    +0.000 A 
ATOM     33  O   UNL     1      36.464  -1.540  17.436  0.00  0.00    +0.000 OA
ENDBRANCH  28  29
ENDBRANCH  10  28
TORSDOF 7
ENDMDL
MODEL 3
REMARK VINA RESULT:      -7.2      2.061      6.193
REMARK  Name = 
REMARK  7 active torsions:
REMARK  status: ('A' for Active; 'I' for Inactive)
REMARK    1  A    between atoms: C_3  and  C_4
REMARK    2  A    between atoms: C_10  and  C_11
REMARK    3  A    between atoms: C_15  and  O_16
REMARK    4  A    between atoms: O_16  and  C_17
REMARK    5  A    between atoms: C_17  and  C_18
REMARK    6  A    between atoms: N_27  and  C_28
REMARK    7  A    between atoms: C_28  and  C_29
REMARK                            x       y       z     vdW  Elec       q    Type
REMARK                         _______ _______ _______ _____ _____    ______ ____
ROOT
ATOM      1  C   UNL     1      40.745   1.878  12.172  0.00  0.00    +0.000 C 
ATOM      2  C   UNL     1      40.518   0.736  13.101  0.00  0.00    +0.000 A 
ATOM      3  C   UNL     1      39.675   0.675  14.188  0.00  0.00    +0.000 A 
ATOM      4  C   UNL     1      39.795  -0.577  14.745  0.00  0.00    +0.000 A 
ATOM      5  C   UNL     1      39.222  -1.218  15.825  0.00  0.00    +0.000 A 
ATOM      6  C   UNL     1      39.577  -2.521  16.118  0.00  0.00    +0.000 A 
ATOM      7  C   UNL     1      40.500  -3.197  15.347  0.00  0.00    +0.000 A 
ATOM      8  C   UNL     1      41.066  -2.545  14.272  0.00  0.00    +0.000 A 
ATOM      9  C   UNL     1      40.717  -1.245  13.972  0.00  0.00    +0.000 A 
ATOM     10  N   UNL     1      41.153  -0.453  12.978  0.00  0.00    +0.000 N 
ENDROOT
BRANCH   3  11
ATOM     11  C   UNL     1      38.815   1.742  14.658  0.00  0.00    +0.000 C 
ATOM     12  O   UNL     1      39.448   2.758  15.126  0.00  0.00    +0.000 OA
ATOM     13  N   UNL     1      37.455   1.675  14.607  0.00  0.00    +0.000 N 
ATOM     14  C   UNL     1      36.645   0.622  14.120  0.00  0.00    +0.000 C 
ATOM     15  C   UNL     1      35.633   0.405  15.227  0.00  0.00    +0.000 C 
ATOM     16  C   UNL     1      35.736   1.579  16.157  0.00  0.00    +0.000 C 
ATOM     17  C   UNL     1      36.355   2.655  15.034  0.00  0.00    +0.000 C 
BRANCH  17  18
ATOM     18  C   UNL     1      37.227   3.481  16.179  0.00  0.00    +0.000 C 
ATOM     19  O   UNL     1      36.897   2.794  17.359  0.00  0.00    +0.000 OA
ENDBRANCH  17  18
ENDBRANCH   3  11
BRANCH   6  20
ATOM     20  O   UNL     1      39.018  -3.185  17.191  0.00  0.00    +0.000 OA
BRANCH  20  21
ATOM     21  C   UNL     1      38.248  -4.363  17.012  0.00  0.00    +0.000 C 
BRANCH  21  22
ATOM     22  C   UNL     1      36.940  -4.022  16.434  0.00  0.00    +0.000 A 
ATOM     23  C   UNL     1      36.073  -3.196  17.074  0.00  0.00    +0.000 A 
ATOM     24  C   UNL     1      34.836  -2.866  16.541  0.00  0.00    +0.000 A 
ATOM     25  C   UNL     1      34.482  -3.399  15.316  0.00  0.00    +0.000 A 
ATOM     26  C   UNL     1      35.336  -4.241  14.634  0.00  0.00    +0.000 A 
ATOM     27  C   UNL     1      36.548  -4.543  15.195  0.00  0.00    +0.000 A 
ENDBRANCH  21  22
ENDBRANCH  20  21
ENDBRANCH   6  20
BRANCH  10  28
ATOM     28  C   UNL     1      42.125  -0.789  11.955  0.00  0.00    +0.000 C 
BRANCH  28  29
ATOM     29  C   UNL     1      41.469  -1.390  10.780  0.00  0.00    +0.000 A 
ATOM     30  C   UNL     1      41.159  -2.722  10.645  0.00  0.00    +0.000 A 
ATOM     31  C   UNL     1      40.549  -2.888   9.396  0.00  0.00    +0.000 A 
ATOM     32  C   UNL     1      40.536  -1.606   8.856  0.00  0.00    +0.000 A 
ATOM     33  O   UNL     1      41.087  -0.757   9.705  0.00  0.00    +0.000 OA
ENDBRANCH  28  29
ENDBRANCH  10  28
TORSDOF 7
ENDMDL
MODEL 4
REMARK VINA RESULT:      -7.1      2.535      6.972
REMARK  Name = 
REMARK  7 active torsions:
REMARK  status: ('A' for Active; 'I' for Inactive)
REMARK    1  A    between atoms: C_3  and  C_4
REMARK    2  A    between atoms: C_10  and  C_11
REMARK    3  A    between atoms: C_15  and  O_16
REMARK    4  A    between atoms: O_16  and  C_17
REMARK    5  A    between atoms: C_17  and  C_18
REMARK    6  A    between atoms: N_27  and  C_28
REMARK    7  A    between atoms: C_28  and  C_29
REMARK                            x       y       z     vdW  Elec       q    Type
REMARK                         _______ _______ _______ _____ _____    ______ ____
ROOT
ATOM      1  C   UNL     1      40.781  -2.973  14.761  0.00  0.00    +0.000 C 
ATOM      2  C   UNL     1      40.505  -1.522  14.564  0.00  0.00    +0.000 A 
ATOM      3  C   UNL     1      39.433  -0.788  15.019  0.00  0.00    +0.000 A 
ATOM      4  C   UNL     1      39.601   0.510  14.597  0.00  0.00    +0.000 A 
ATOM      5  C   UNL     1      38.877   1.678  14.736  0.00  0.00    +0.000 A 
ATOM      6  C   UNL     1      39.345   2.847  14.168  0.00  0.00    +0.000 A 
ATOM      7  C   UNL     1      40.529   2.869  13.459  0.00  0.00    +0.000 A 
ATOM      8  C   UNL     1      41.242   1.697  13.327  0.00  0.00    +0.000 A 
ATOM      9  C   UNL     1      40.783   0.524  13.891  0.00  0.00    +0.000 A 
ATOM     10  N   UNL     1      41.330  -0.703  13.872  0.00  0.00    +0.000 N 
ENDROOT
BRANCH   3  11
ATOM     11  C   UNL     1      38.325  -1.297  15.803  0.00  0.00    +0.000 C 
ATOM     12  O   UNL     1      38.390  -1.005  17.052  0.00  0.00    +0.000 OA
ATOM     13  N   UNL     1      37.305  -2.021  15.262  0.00  0.00    +0.000 N 
ATOM     14  C   UNL     1      37.120  -2.406  13.912  0.00  0.00    +0.000 C 
ATOM     15  C   UNL     1      36.816  -3.888  14.001  0.00  0.00    +0.000 C 
ATOM     16  C   UNL     1      36.533  -4.197  15.442  0.00  0.00    +0.000 C 
ATOM     17  C   UNL     1      36.049  -2.654  15.873  0.00  0.00    +0.000 C 
BRANCH  17  18
ATOM     18  C   UNL     1      36.617  -2.818  17.424  0.00  0.00    +0.000 C 
ATOM     19  O   UNL     1      37.227  -4.083  17.387  0.00  0.00    +0.000 OA
ENDBRANCH  17  18
ENDBRANCH   3  11
BRANCH   6  20
ATOM     20  O   UNL     1      38.642   4.027  14.292  0.00  0.00    +0.000 OA
BRANCH  20  21
ATOM     21  C   UNL     1      39.299   5.253  14.573  0.00  0.00    +0.000 C 
BRANCH  21  22
ATOM     22  C   UNL     1      39.488   5.396  16.024  0.00  0.00    +0.000 A 
ATOM     23  C   UNL     1      40.536   6.089  16.541  0.00  0.00    +0.000 A 
ATOM     24  C   UNL     1      40.728   6.232  17.906  0.00  0.00    +0.000 A 
ATOM     25  C   UNL     1      39.816   5.647  18.765  0.00  0.00    +0.000 A 
ATOM     26  C   UNL     1      38.738   4.935  18.280  0.00  0.00    +0.000 A 
ATOM     27  C   UNL     1      38.586   4.817  16.924  0.00  0.00    +0.000 A 
ENDBRANCH  21  22
ENDBRANCH  20  21
ENDBRANCH   6  20
BRANCH  10  28
ATOM     28  C   UNL     1      42.571  -1.096  13.232  0.00  0.00    +0.000 C 
BRANCH  28  29
ATOM     29  C   UNL     1      43.681  -1.114  14.201  0.00  0.00    +0.000 A 
ATOM     30  C   UNL     1      44.292   0.002  14.721  0.00  0.00    +0.000 A 
ATOM     31  C   UNL     1      45.292  -0.437  15.598  0.00  0.00    +0.000 A 
ATOM     32  C   UNL     1      45.207  -1.824  15.538  0.00  0.00    +0.000 A 
ATOM     33  O   UNL     1      44.246  -2.178  14.704  0.00  0.00    +0.000 OA
ENDBRANCH  28  29
ENDBRANCH  10  28
TORSDOF 7
ENDMDL
MODEL 5
REMARK VINA RESULT:      -7.1      2.038      6.797
REMARK  Name = 
REMARK  7 active torsions:
REMARK  status: ('A' for Active; 'I' for Inactive)
REMARK    1  A    between atoms: C_3  and  C_4
REMARK    2  A    between atoms: C_10  and  C_11
REMARK    3  A    between atoms: C_15  and  O_16
REMARK    4  A    between atoms: O_16  and  C_17
REMARK    5  A    between atoms: C_17  and  C_18
REMARK    6  A    between atoms: N_27  and  C_28
REMARK    7  A    between atoms: C_28  and  C_29
REMARK                            x       y       z     vdW  Elec       q    Type
REMARK                         _______ _______ _______ _____ _____    ______ ____
ROOT
ATOM      1  C   UNL     1      39.320  -2.826  13.561  0.00  0.00    +0.000 C 
ATOM      2  C   UNL     1      39.233  -1.364  13.832  0.00  0.00    +0.000 A 
ATOM      3  C   UNL     1      38.305  -0.692  14.595  0.00  0.00    +0.000 A 
ATOM      4  C   UNL     1      38.619   0.646  14.560  0.00  0.00    +0.000 A 
ATOM      5  C   UNL     1      38.073   1.787  15.115  0.00  0.00    +0.000 A 
ATOM      6  C   UNL     1      38.656   3.015  14.871  0.00  0.00    +0.000 A 
ATOM      7  C   UNL     1      39.780   3.125  14.078  0.00  0.00    +0.000 A 
ATOM      8  C   UNL     1      40.315   1.979  13.530  0.00  0.00    +0.000 A 
ATOM      9  C   UNL     1      39.740   0.747  13.768  0.00  0.00    +0.000 A 
ATOM     10  N   UNL     1      40.111  -0.467  13.328  0.00  0.00    +0.000 N 
ENDROOT
BRANCH   3  11
ATOM     11  C   UNL     1      37.195  -1.293  15.308  0.00  0.00    +0.000 C 
ATOM     12  O   UNL     1      36.055  -1.128  14.739  0.00  0.00    +0.000 OA
ATOM     13  N   UNL     1      37.349  -1.974  16.478  0.00  0.00    +0.000 N 
ATOM     14  C   UNL     1      38.540  -2.224  17.201  0.00  0.00    +0.000 C 
ATOM     15  C   UNL     1      38.190  -1.823  18.620  0.00  0.00    +0.000 C 
ATOM     16  C   UNL     1      36.699  -1.663  18.680  0.00  0.00    +0.000 C 
ATOM     17  C   UNL     1      36.348  -2.684  17.400  0.00  0.00    +0.000 C 
BRANCH  17  18
ATOM     18  C   UNL     1      34.999  -1.818  16.970  0.00  0.00    +0.000 C 
ATOM     19  O   UNL     1      34.840  -0.948  18.061  0.00  0.00    +0.000 OA
ENDBRANCH  17  18
ENDBRANCH   3  11
BRANCH   6  20
ATOM     20  O   UNL     1      38.130   4.170  15.413  0.00  0.00    +0.000 OA
BRANCH  20  21
ATOM     21  C   UNL     1      37.911   4.298  16.809  0.00  0.00    +0.000 C 
BRANCH  21  22
ATOM     22  C   UNL     1      38.986   5.101  17.411  0.00  0.00    +0.000 A 
ATOM     23  C   UNL     1      39.059   5.303  18.752  0.00  0.00    +0.000 A 
ATOM     24  C   UNL     1      40.066   6.057  19.334  0.00  0.00    +0.000 A 
ATOM     25  C   UNL     1      41.026   6.620  18.514  0.00  0.00    +0.000 A 
ATOM     26  C   UNL     1      40.988   6.439  17.147  0.00  0.00    +0.000 A 
ATOM     27  C   UNL     1      39.975   5.687  16.612  0.00  0.00    +0.000 A 
ENDBRANCH  21  22
ENDBRANCH  20  21
ENDBRANCH   6  20
BRANCH  10  28
ATOM     28  C   UNL     1      41.240  -0.778  12.471  0.00  0.00    +0.000 C 
BRANCH  28  29
ATOM     29  C   UNL     1      42.512  -0.649  13.206  0.00  0.00    +0.000 A 
ATOM     30  C   UNL     1      42.743  -1.131  14.472  0.00  0.00    +0.000 A 
ATOM     31  C   UNL     1      44.063  -0.807  14.810  0.00  0.00    +0.000 A 
ATOM     32  C   UNL     1      44.541  -0.135  13.690  0.00  0.00    +0.000 A 
ATOM     33  O   UNL     1      43.595  -0.065  12.771  0.00  0.00    +0.000 OA
ENDBRANCH  28  29
ENDBRANCH  10  28
TORSDOF 7
ENDMDL
MODEL 6
REMARK VINA RESULT:      -7.1      1.725      5.940
REMARK  Name = 
REMARK  7 active torsions:
REMARK  status: ('A' for Active; 'I' for Inactive)
REMARK    1  A    between atoms: C_3  and  C_4
REMARK    2  A    between atoms: C_10  and  C_11
REMARK    3  A    between atoms: C_15  and  O_16
REMARK    4  A    between atoms: O_16  and  C_17
REMARK    5  A    between atoms: C_17  and  C_18
REMARK    6  A    between atoms: N_27  and  C_28
REMARK    7  A    between atoms: C_28  and  C_29
REMARK                            x       y       z     vdW  Elec       q    Type
REMARK                         _______ _______ _______ _____ _____    ______ ____
ROOT
ATOM      1  C   UNL     1      37.332  -2.765  14.418  0.00  0.00    +0.000 C 
ATOM      2  C   UNL     1      37.030  -1.336  14.713  0.00  0.00    +0.000 A 
ATOM      3  C   UNL     1      37.469  -0.216  14.042  0.00  0.00    +0.000 A 
ATOM      4  C   UNL     1      36.936   0.886  14.669  0.00  0.00    +0.000 A 
ATOM      5  C   UNL     1      37.012   2.250  14.466  0.00  0.00    +0.000 A 
ATOM      6  C   UNL     1      36.333   3.108  15.309  0.00  0.00    +0.000 A 
ATOM      7  C   UNL     1      35.576   2.625  16.357  0.00  0.00    +0.000 A 
ATOM      8  C   UNL     1      35.509   1.262  16.549  0.00  0.00    +0.000 A 
ATOM      9  C   UNL     1      36.184   0.397  15.713  0.00  0.00    +0.000 A 
ATOM     10  N   UNL     1      36.240  -0.945  15.739  0.00  0.00    +0.000 N 
ENDROOT
BRANCH   3  11
ATOM     11  C   UNL     1      38.336  -0.206  12.881  0.00  0.00    +0.000 C 
ATOM     12  O   UNL     1      37.716  -0.059  11.765  0.00  0.00    +0.000 OA
ATOM     13  N   UNL     1      39.689  -0.338  12.967  0.00  0.00    +0.000 N 
ATOM     14  C   UNL     1      40.485  -0.505  14.125  0.00  0.00    +0.000 C 
ATOM     15  C   UNL     1      41.377  -1.681  13.782  0.00  0.00    +0.000 C 
ATOM     16  C   UNL     1      41.250  -1.917  12.305  0.00  0.00    +0.000 C 
ATOM     17  C   UNL     1      40.796  -0.357  11.904  0.00  0.00    +0.000 C 
BRANCH  17  18
ATOM     18  C   UNL     1      39.866  -0.867  10.627  0.00  0.00    +0.000 C 
ATOM     19  O   UNL     1      40.118  -2.248  10.604  0.00  0.00    +0.000 OA
ENDBRANCH  17  18
ENDBRANCH   3  11
BRANCH   6  20
ATOM     20  O   UNL     1      36.391   4.475  15.127  0.00  0.00    +0.000 OA
BRANCH  20  21
ATOM     21  C   UNL     1      37.631   5.153  15.011  0.00  0.00    +0.000 C 
BRANCH  21  22
ATOM     22  C   UNL     1      38.096   5.574  16.341  0.00  0.00    +0.000 A 
ATOM     23  C   UNL     1      38.076   6.877  16.723  0.00  0.00    +0.000 A 
ATOM     24  C   UNL     1      38.511   7.289  17.973  0.00  0.00    +0.000 A 
ATOM     25  C   UNL     1      38.978   6.334  18.857  0.00  0.00    +0.000 A 
ATOM     26  C   UNL     1      39.014   5.000  18.508  0.00  0.00    +0.000 A 
ATOM     27  C   UNL     1      38.575   4.635  17.262  0.00  0.00    +0.000 A 
ENDBRANCH  21  22
ENDBRANCH  20  21
ENDBRANCH   6  20
BRANCH  10  28
ATOM     28  C   UNL     1      35.584  -1.829  16.684  0.00  0.00    +0.000 C 
BRANCH  28  29
ATOM     29  C   UNL     1      36.454  -2.104  17.841  0.00  0.00    +0.000 A 
ATOM     30  C   UNL     1      36.414  -1.426  19.036  0.00  0.00    +0.000 A 
ATOM     31  C   UNL     1      37.392  -1.985  19.869  0.00  0.00    +0.000 A 
ATOM     32  C   UNL     1      37.964  -2.985  19.091  0.00  0.00    +0.000 A 
ATOM     33  O   UNL     1      37.382  -3.020  17.906  0.00  0.00    +0.000 OA
ENDBRANCH  28  29
ENDBRANCH  10  28
TORSDOF 7
ENDMDL
MODEL 7
REMARK VINA RESULT:      -6.9      2.025      6.068
REMARK  Name = 
REMARK  7 active torsions:
REMARK  status: ('A' for Active; 'I' for Inactive)
REMARK    1  A    between atoms: C_3  and  C_4
REMARK    2  A    between atoms: C_10  and  C_11
REMARK    3  A    between atoms: C_15  and  O_16
REMARK    4  A    between atoms: O_16  and  C_17
REMARK    5  A    between atoms: C_17  and  C_18
REMARK    6  A    between atoms: N_27  and  C_28
REMARK    7  A    between atoms: C_28  and  C_29
REMARK                            x       y       z     vdW  Elec       q    Type
REMARK                         _______ _______ _______ _____ _____    ______ ____
ROOT
ATOM      1  C   UNL     1      39.474   1.440  11.343  0.00  0.00    +0.000 C 
ATOM      2  C   UNL     1      39.469   0.453  12.459  0.00  0.00    +0.000 A 
ATOM      3  C   UNL     1      39.110   0.654  13.773  0.00  0.00    +0.000 A 
ATOM      4  C   UNL     1      39.262  -0.540  14.439  0.00  0.00    +0.000 A 
ATOM      5  C   UNL     1      39.067  -0.957  15.741  0.00  0.00    +0.000 A 
ATOM      6  C   UNL     1      39.325  -2.270  16.087  0.00  0.00    +0.000 A 
ATOM      7  C   UNL     1      39.778  -3.176  15.150  0.00  0.00    +0.000 A 
ATOM      8  C   UNL     1      39.970  -2.747  13.854  0.00  0.00    +0.000 A 
ATOM      9  C   UNL     1      39.715  -1.438  13.500  0.00  0.00    +0.000 A 
ATOM     10  N   UNL     1      39.839  -0.839  12.303  0.00  0.00    +0.000 N 
ENDROOT
BRANCH   3  11
ATOM     11  C   UNL     1      38.652   1.903  14.348  0.00  0.00    +0.000 C 
ATOM     12  O   UNL     1      39.599   2.710  14.670  0.00  0.00    +0.000 OA
ATOM     13  N   UNL     1      37.334   2.195  14.531  0.00  0.00    +0.000 N 
ATOM     14  C   UNL     1      36.205   1.398  14.222  0.00  0.00    +0.000 C 
ATOM     15  C   UNL     1      35.378   1.439  15.491  0.00  0.00    +0.000 C 
ATOM     16  C   UNL     1      35.942   2.531  16.352  0.00  0.00    +0.000 C 
ATOM     17  C   UNL     1      36.617   3.423  15.107  0.00  0.00    +0.000 C 
BRANCH  17  18
ATOM     18  C   UNL     1      37.858   3.975  16.061  0.00  0.00    +0.000 C 
ATOM     19  O   UNL     1      37.509   3.472  17.326  0.00  0.00    +0.000 OA
ENDBRANCH  17  18
ENDBRANCH   3  11
BRANCH   6  20
ATOM     20  O   UNL     1      39.137  -2.713  17.380  0.00  0.00    +0.000 OA
BRANCH  20  21
ATOM     21  C   UNL     1      37.965  -3.417  17.757  0.00  0.00    +0.000 C 
BRANCH  21  22
ATOM     22  C   UNL     1      36.854  -2.472  17.944  0.00  0.00    +0.000 A 
ATOM     23  C   UNL     1      36.910  -1.482  18.871  0.00  0.00    +0.000 A 
ATOM     24  C   UNL     1      35.871  -0.583  19.059  0.00  0.00    +0.000 A 
ATOM     25  C   UNL     1      34.742  -0.706  18.271  0.00  0.00    +0.000 A 
ATOM     26  C   UNL     1      34.646  -1.699  17.317  0.00  0.00    +0.000 A 
ATOM     27  C   UNL     1      35.696  -2.566  17.164  0.00  0.00    +0.000 A 
ENDBRANCH  21  22
ENDBRANCH  20  21
ENDBRANCH   6  20
BRANCH  10  28
ATOM     28  C   UNL     1      40.286  -1.447  11.064  0.00  0.00    +0.000 C 
BRANCH  28  29
ATOM     29  C   UNL     1      41.754  -1.379  10.943  0.00  0.00    +0.000 A 
ATOM     30  C   UNL     1      42.618  -2.399  11.262  0.00  0.00    +0.000 A 
ATOM     31  C   UNL     1      43.918  -1.942  11.008  0.00  0.00    +0.000 A 
ATOM     32  C   UNL     1      43.733  -0.645  10.543  0.00  0.00    +0.000 A 
ATOM     33  O   UNL     1      42.445  -0.356  10.521  0.00  0.00    +0.000 OA
ENDBRANCH  28  29
ENDBRANCH  10  28
TORSDOF 7
ENDMDL
MODEL 8
REMARK VINA RESULT:      -6.9      2.586      5.830
REMARK  Name = 
REMARK  7 active torsions:
REMARK  status: ('A' for Active; 'I' for Inactive)
REMARK    1  A    between atoms: C_3  and  C_4
REMARK    2  A    between atoms: C_10  and  C_11
REMARK    3  A    between atoms: C_15  and  O_16
REMARK    4  A    between atoms: O_16  and  C_17
REMARK    5  A    between atoms: C_17  and  C_18
REMARK    6  A    between atoms: N_27  and  C_28
REMARK    7  A    between atoms: C_28  and  C_29
REMARK                            x       y       z     vdW  Elec       q    Type
REMARK                         _______ _______ _______ _____ _____    ______ ____
ROOT
ATOM      1  C   UNL     1      41.738   2.004  12.844  0.00  0.00    +0.000 C 
ATOM      2  C   UNL     1      41.175   0.837  13.579  0.00  0.00    +0.000 A 
ATOM      3  C   UNL     1      40.000   0.765  14.294  0.00  0.00    +0.000 A 
ATOM      4  C   UNL     1      39.892  -0.509  14.798  0.00  0.00    +0.000 A 
ATOM      5  C   UNL     1      38.960  -1.170  15.575  0.00  0.00    +0.000 A 
ATOM      6  C   UNL     1      39.163  -2.494  15.914  0.00  0.00    +0.000 A 
ATOM      7  C   UNL     1      40.287  -3.172  15.488  0.00  0.00    +0.000 A 
ATOM      8  C   UNL     1      41.210  -2.501  14.714  0.00  0.00    +0.000 A 
ATOM      9  C   UNL     1      41.015  -1.180  14.371  0.00  0.00    +0.000 A 
ATOM     10  N   UNL     1      41.790  -0.367  13.634  0.00  0.00    +0.000 N 
ENDROOT
BRANCH   3  11
ATOM     11  C   UNL     1      39.050   1.844  14.478  0.00  0.00    +0.000 C 
ATOM     12  O   UNL     1      39.470   2.788  15.242  0.00  0.00    +0.000 OA
ATOM     13  N   UNL     1      37.820   1.855  13.892  0.00  0.00    +0.000 N 
ATOM     14  C   UNL     1      37.244   0.884  13.038  0.00  0.00    +0.000 C 
ATOM     15  C   UNL     1      35.872   0.648  13.637  0.00  0.00    +0.000 C 
ATOM     16  C   UNL     1      35.626   1.747  14.629  0.00  0.00    +0.000 C 
ATOM     17  C   UNL     1      36.664   2.862  13.935  0.00  0.00    +0.000 C 
BRANCH  17  18
ATOM     18  C   UNL     1      37.031   3.557  15.397  0.00  0.00    +0.000 C 
ATOM     19  O   UNL     1      36.801   4.920  15.146  0.00  0.00    +0.000 OA
ENDBRANCH  17  18
ENDBRANCH   3  11
BRANCH   6  20
ATOM     20  O   UNL     1      38.248  -3.177  16.688  0.00  0.00    +0.000 OA
BRANCH  20  21
ATOM     21  C   UNL     1      37.912  -2.739  17.994  0.00  0.00    +0.000 C 
BRANCH  21  22
ATOM     22  C   UNL     1      36.775  -1.809  17.932  0.00  0.00    +0.000 A 
ATOM     23  C   UNL     1      36.755  -0.659  18.653  0.00  0.00    +0.000 A 
ATOM     24  C   UNL     1      35.690   0.228  18.605  0.00  0.00    +0.000 A 
ATOM     25  C   UNL     1      34.615  -0.077  17.790  0.00  0.00    +0.000 A 
ATOM     26  C   UNL     1      34.597  -1.235  17.041  0.00  0.00    +0.000 A 
ATOM     27  C   UNL     1      35.669  -2.084  17.118  0.00  0.00    +0.000 A 
ENDBRANCH  21  22
ENDBRANCH  20  21
ENDBRANCH   6  20
BRANCH  10  28
ATOM     28  C   UNL     1      43.056  -0.699  13.006  0.00  0.00    +0.000 C 
BRANCH  28  29
ATOM     29  C   UNL     1      44.084  -1.000  14.019  0.00  0.00    +0.000 A 
ATOM     30  C   UNL     1      44.461  -0.154  15.034  0.00  0.00    +0.000 A 
ATOM     31  C   UNL     1      45.458  -0.804  15.774  0.00  0.00    +0.000 A 
ATOM     32  C   UNL     1      45.610  -2.027  15.129  0.00  0.00    +0.000 A 
ATOM     33  O   UNL     1      44.782  -2.099  14.103  0.00  0.00    +0.000 OA
ENDBRANCH  28  29
ENDBRANCH  10  28
TORSDOF 7
ENDMDL
MODEL 9
REMARK VINA RESULT:      -6.8      3.121      6.255
REMARK  Name = 
REMARK  7 active torsions:
REMARK  status: ('A' for Active; 'I' for Inactive)
REMARK    1  A    between atoms: C_3  and  C_4
REMARK    2  A    between atoms: C_10  and  C_11
REMARK    3  A    between atoms: C_15  and  O_16
REMARK    4  A    between atoms: O_16  and  C_17
REMARK    5  A    between atoms: C_17  and  C_18
REMARK    6  A    between atoms: N_27  and  C_28
REMARK    7  A    between atoms: C_28  and  C_29
REMARK                            x       y       z     vdW  Elec       q    Type
REMARK                         _______ _______ _______ _____ _____    ______ ____
ROOT
ATOM      1  C   UNL     1      36.646   8.645  14.411  0.00  0.00    +0.000 C 
ATOM      2  C   UNL     1      36.679   7.167  14.593  0.00  0.00    +0.000 A 
ATOM      3  C   UNL     1      37.683   6.396  15.134  0.00  0.00    +0.000 A 
ATOM      4  C   UNL     1      37.273   5.084  15.098  0.00  0.00    +0.000 A 
ATOM      5  C   UNL     1      37.831   3.881  15.485  0.00  0.00    +0.000 A 
ATOM      6  C   UNL     1      37.126   2.707  15.300  0.00  0.00    +0.000 A 
ATOM      7  C   UNL     1      35.869   2.713  14.731  0.00  0.00    +0.000 A 
ATOM      8  C   UNL     1      35.324   3.921  14.349  0.00  0.00    +0.000 A 
ATOM      9  C   UNL     1      36.020   5.098  14.529  0.00  0.00    +0.000 A 
ATOM     10  N   UNL     1      35.660   6.356  14.225  0.00  0.00    +0.000 N 
ENDROOT
BRANCH   3  11
ATOM     11  C   UNL     1      38.946   6.885  15.649  0.00  0.00    +0.000 C 
ATOM     12  O   UNL     1      39.821   7.136  14.742  0.00  0.00    +0.000 OA
ATOM     13  N   UNL     1      39.184   7.063  16.979  0.00  0.00    +0.000 N 
ATOM     14  C   UNL     1      38.312   6.825  18.068  0.00  0.00    +0.000 C 
ATOM     15  C   UNL     1      39.152   6.010  19.030  0.00  0.00    +0.000 C 
ATOM     16  C   UNL     1      40.575   6.102  18.562  0.00  0.00    +0.000 C 
ATOM     17  C   UNL     1      40.413   7.558  17.752  0.00  0.00    +0.000 C 
BRANCH  17  18
ATOM     18  C   UNL     1      41.561   7.154  16.623  0.00  0.00    +0.000 C 
ATOM     19  O   UNL     1      42.345   6.216  17.315  0.00  0.00    +0.000 OA
ENDBRANCH  17  18
ENDBRANCH   3  11
BRANCH   6  20
ATOM     20  O   UNL     1      37.660   1.492  15.679  0.00  0.00    +0.000 OA
BRANCH  20  21
ATOM     21  C   UNL     1      36.903   0.296  15.601  0.00  0.00    +0.000 C 
BRANCH  21  22
ATOM     22  C   UNL     1      36.911  -0.386  16.904  0.00  0.00    +0.000 A 
ATOM     23  C   UNL     1      37.689  -1.474  17.134  0.00  0.00    +0.000 A 
ATOM     24  C   UNL     1      37.707  -2.127  18.357  0.00  0.00    +0.000 A 
ATOM     25  C   UNL     1      36.902  -1.646  19.372  0.00  0.00    +0.000 A 
ATOM     26  C   UNL     1      36.097  -0.543  19.179  0.00  0.00    +0.000 A 
ATOM     27  C   UNL     1      36.108   0.073  17.955  0.00  0.00    +0.000 A 
ENDBRANCH  21  22
ENDBRANCH  20  21
ENDBRANCH   6  20
BRANCH  10  28
ATOM     28  C   UNL     1      34.416   6.786  13.614  0.00  0.00    +0.000 C 
BRANCH  28  29
ATOM     29  C   UNL     1      34.538   6.834  12.146  0.00  0.00    +0.000 A 
ATOM     30  C   UNL     1      33.578   7.320  11.291  0.00  0.00    +0.000 A 
ATOM     31  C   UNL     1      34.073   7.191   9.987  0.00  0.00    +0.000 A 
ATOM     32  C   UNL     1      35.329   6.619  10.159  0.00  0.00    +0.000 A 
ATOM     33  O   UNL     1      35.561   6.427  11.445  0.00  0.00    +0.000 OA
ENDBRANCH  28  29
ENDBRANCH  10  28
TORSDOF 7
ENDMDL
MODEL 10
REMARK VINA RESULT:      -6.7      2.185      6.482
REMARK  Name = 
REMARK  7 active torsions:
REMARK  status: ('A' for Active; 'I' for Inactive)
REMARK    1  A    between atoms: C_3  and  C_4
REMARK    2  A    between atoms: C_10  and  C_11
REMARK    3  A    between atoms: C_15  and  O_16
REMARK    4  A    between atoms: O_16  and  C_17
REMARK    5  A    between atoms: C_17  and  C_18
REMARK    6  A    between atoms: N_27  and  C_28
REMARK    7  A    between atoms: C_28  and  C_29
REMARK                            x       y       z     vdW  Elec       q    Type
REMARK                         _______ _______ _______ _____ _____    ______ ____
ROOT
ATOM      1  C   UNL     1      34.754   0.725  17.202  0.00  0.00    +0.000 C 
ATOM      2  C   UNL     1      35.613   0.258  16.078  0.00  0.00    +0.000 A 
ATOM      3  C   UNL     1      36.142   0.997  15.045  0.00  0.00    +0.000 A 
ATOM      4  C   UNL     1      36.869   0.145  14.246  0.00  0.00    +0.000 A 
ATOM      5  C   UNL     1      37.611   0.294  13.091  0.00  0.00    +0.000 A 
ATOM      6  C   UNL     1      38.234  -0.804  12.529  0.00  0.00    +0.000 A 
ATOM      7  C   UNL     1      38.126  -2.054  13.104  0.00  0.00    +0.000 A 
ATOM      8  C   UNL     1      37.382  -2.189  14.256  0.00  0.00    +0.000 A 
ATOM      9  C   UNL     1      36.757  -1.098  14.825  0.00  0.00    +0.000 A 
ATOM     10  N   UNL     1      35.999  -1.031  15.932  0.00  0.00    +0.000 N 
ENDROOT
BRANCH   3  11
ATOM     11  C   UNL     1      35.963   2.420  14.839  0.00  0.00    +0.000 C 
ATOM     12  O   UNL     1      34.780   2.751  14.463  0.00  0.00    +0.000 OA
ATOM     13  N   UNL     1      36.962   3.327  15.029  0.00  0.00    +0.000 N 
ATOM     14  C   UNL     1      38.297   3.093  15.437  0.00  0.00    +0.000 C 
ATOM     15  C   UNL     1      39.122   3.866  14.429  0.00  0.00    +0.000 C 
ATOM     16  C   UNL     1      38.181   4.764  13.681  0.00  0.00    +0.000 C 
ATOM     17  C   UNL     1      37.015   4.853  14.878  0.00  0.00    +0.000 C 
BRANCH  17  18
ATOM     18  C   UNL     1      35.780   5.010  13.782  0.00  0.00    +0.000 C 
ATOM     19  O   UNL     1      35.298   6.301  14.055  0.00  0.00    +0.000 OA
ENDBRANCH  17  18
ENDBRANCH   3  11
BRANCH   6  20
ATOM     20  O   UNL     1      38.981  -0.683  11.376  0.00  0.00    +0.000 OA
BRANCH  20  21
ATOM     21  C   UNL     1      40.171   0.089  11.344  0.00  0.00    +0.000 C 
BRANCH  21  22
ATOM     22  C   UNL     1      41.158  -0.476  12.275  0.00  0.00    +0.000 A 
ATOM     23  C   UNL     1      41.562   0.199  13.381  0.00  0.00    +0.000 A 
ATOM     24  C   UNL     1      42.492  -0.321  14.268  0.00  0.00    +0.000 A 
ATOM     25  C   UNL     1      43.022  -1.571  14.010  0.00  0.00    +0.000 A 
ATOM     26  C   UNL     1      42.638  -2.290  12.897  0.00  0.00    +0.000 A 
ATOM     27  C   UNL     1      41.716  -1.739  12.045  0.00  0.00    +0.000 A 
ENDBRANCH  21  22
ENDBRANCH  20  21
ENDBRANCH   6  20
BRANCH  10  28
ATOM     28  C   UNL     1      35.647  -2.124  16.818  0.00  0.00    +0.000 C 
BRANCH  28  29
ATOM     29  C   UNL     1      36.742  -2.412  17.763  0.00  0.00    +0.000 A 
ATOM     30  C   UNL     1      36.944  -1.761  18.956  0.00  0.00    +0.000 A 
ATOM     31  C   UNL     1      38.079  -2.322  19.554  0.00  0.00    +0.000 A 
ATOM     32  C   UNL     1      38.488  -3.296  18.650  0.00  0.00    +0.000 A 
ATOM     33  O   UNL     1      37.672  -3.314  17.611  0.00  0.00    +0.000 OA
ENDBRANCH  28  29
ENDBRANCH  10  28
TORSDOF 7
ENDMDL
