MODEL 1
REMARK VINA RESULT:      -7.8      0.000      0.000
REMARK  Name = 
REMARK  0 active torsions:
REMARK  status: ('A' for Active; 'I' for Inactive)
REMARK                            x       y       z     vdW  Elec       q    Type
REMARK                         _______ _______ _______ _____ _____    ______ ____
ROOT
ATOM      1  C   UNL     1      33.707   6.035  37.857  0.00  0.00    +0.000 C 
ATOM      2  C   UNL     1      35.034   5.604  37.216  0.00  0.00    +0.000 C 
ATOM      3  C   UNL     1      35.488   4.375  37.899  0.00  0.00    +0.000 C 
ATOM      4  C   UNL     1      35.117   3.153  37.148  0.00  0.00    +0.000 C 
ATOM      5  C   UNL     1      33.896   3.548  36.180  0.00  0.00    +0.000 C 
ATOM      6  C   UNL     1      33.835   2.180  35.438  0.00  0.00    +0.000 A 
ATOM      7  C   UNL     1      34.108   1.012  36.103  0.00  0.00    +0.000 A 
ATOM      8  C   UNL     1      34.042  -0.222  35.440  0.00  0.00    +0.000 A 
ATOM      9  C   UNL     1      33.696  -0.233  34.105  0.00  0.00    +0.000 A 
ATOM     10  O   UNL     1      33.638  -1.468  33.471  0.00  0.00    +0.000 OA
ATOM     11  C   UNL     1      33.428   0.959  33.468  0.00  0.00    +0.000 A 
ATOM     12  C   UNL     1      33.496   2.190  34.134  0.00  0.00    +0.000 A 
ATOM     13  C   UNL     1      33.195   3.442  33.419  0.00  0.00    +0.000 C 
ATOM     14  C   UNL     1      33.744   4.647  34.021  0.00  0.00    +0.000 C 
ATOM     15  C   UNL     1      34.916   4.288  35.059  0.00  0.00    +0.000 C 
ATOM     16  C   UNL     1      34.959   5.681  35.802  0.00  0.00    +0.000 C 
ATOM     17  C   UNL     1      33.996   6.695  35.362  0.00  0.00    +0.000 C 
ATOM     18  C   UNL     1      34.482   7.826  36.192  0.00  0.00    +0.000 C 
ATOM     19  C   UNL     1      36.072   7.636  36.270  0.00  0.00    +0.000 C 
ATOM     20  C   UNL     1      36.213   6.332  35.340  0.00  0.00    +0.000 C 
ATOM     21  C   UNL     1      36.044   6.755  37.720  0.00  0.00    +0.000 C 
ATOM     22  O   UNL     1      37.299   5.998  37.387  0.00  0.00    +0.000 OA
ENDROOT
TORSDOF 0
ENDMDL
MODEL 2
REMARK VINA RESULT:      -7.4     21.309     24.193
REMARK  Name = 
REMARK  0 active torsions:
REMARK  status: ('A' for Active; 'I' for Inactive)
REMARK                            x       y       z     vdW  Elec       q    Type
REMARK                         _______ _______ _______ _____ _____    ______ ____
ROOT
ATOM      1  C   UNL     1      29.825  25.645  23.826  0.00  0.00    +0.000 C 
ATOM      2  C   UNL     1      28.809  24.525  23.559  0.00  0.00    +0.000 C 
ATOM      3  C   UNL     1      29.349  23.278  24.137  0.00  0.00    +0.000 C 
ATOM      4  C   UNL     1      28.791  23.002  25.481  0.00  0.00    +0.000 C 
ATOM      5  C   UNL     1      28.249  24.399  26.062  0.00  0.00    +0.000 C 
ATOM      6  C   UNL     1      27.606  23.796  27.346  0.00  0.00    +0.000 A 
ATOM      7  C   UNL     1      28.185  22.727  27.981  0.00  0.00    +0.000 A 
ATOM      8  C   UNL     1      27.614  22.190  29.144  0.00  0.00    +0.000 A 
ATOM      9  C   UNL     1      26.459  22.763  29.634  0.00  0.00    +0.000 A 
ATOM     10  O   UNL     1      25.914  22.213  30.787  0.00  0.00    +0.000 OA
ATOM     11  C   UNL     1      25.904  23.836  28.970  0.00  0.00    +0.000 A 
ATOM     12  C   UNL     1      26.478  24.369  27.808  0.00  0.00    +0.000 A 
ATOM     13  C   UNL     1      25.858  25.521  27.133  0.00  0.00    +0.000 C 
ATOM     14  C   UNL     1      26.218  25.687  25.733  0.00  0.00    +0.000 C 
ATOM     15  C   UNL     1      26.841  24.332  25.136  0.00  0.00    +0.000 C 
ATOM     16  C   UNL     1      27.490  24.963  23.842  0.00  0.00    +0.000 C 
ATOM     17  C   UNL     1      27.347  26.412  23.670  0.00  0.00    +0.000 C 
ATOM     18  C   UNL     1      27.947  26.527  22.316  0.00  0.00    +0.000 C 
ATOM     19  C   UNL     1      27.522  25.182  21.555  0.00  0.00    +0.000 C 
ATOM     20  C   UNL     1      26.635  24.508  22.714  0.00  0.00    +0.000 C 
ATOM     21  C   UNL     1      28.932  24.330  21.963  0.00  0.00    +0.000 C 
ATOM     22  O   UNL     1      28.240  22.996  21.930  0.00  0.00    +0.000 OA
ENDROOT
TORSDOF 0
ENDMDL
MODEL 3
REMARK VINA RESULT:      -7.3     21.213     24.082
REMARK  Name = 
REMARK  0 active torsions:
REMARK  status: ('A' for Active; 'I' for Inactive)
REMARK                            x       y       z     vdW  Elec       q    Type
REMARK                         _______ _______ _______ _____ _____    ______ ____
ROOT
ATOM      1  C   UNL     1      26.841  23.919  22.313  0.00  0.00    +0.000 C 
ATOM      2  C   UNL     1      27.406  25.047  23.188  0.00  0.00    +0.000 C 
ATOM      3  C   UNL     1      26.337  25.483  24.110  0.00  0.00    +0.000 C 
ATOM      4  C   UNL     1      26.460  24.847  25.442  0.00  0.00    +0.000 C 
ATOM      5  C   UNL     1      27.343  23.518  25.250  0.00  0.00    +0.000 C 
ATOM      6  C   UNL     1      27.436  23.171  26.766  0.00  0.00    +0.000 A 
ATOM      7  C   UNL     1      26.386  23.433  27.608  0.00  0.00    +0.000 A 
ATOM      8  C   UNL     1      26.462  23.110  28.970  0.00  0.00    +0.000 A 
ATOM      9  C   UNL     1      27.617  22.522  29.442  0.00  0.00    +0.000 A 
ATOM     10  O   UNL     1      27.668  22.213  30.795  0.00  0.00    +0.000 OA
ATOM     11  C   UNL     1      28.653  22.273  28.568  0.00  0.00    +0.000 A 
ATOM     12  C   UNL     1      28.572  22.598  27.207  0.00  0.00    +0.000 A 
ATOM     13  C   UNL     1      29.699  22.308  26.304  0.00  0.00    +0.000 C 
ATOM     14  C   UNL     1      29.726  23.088  25.077  0.00  0.00    +0.000 C 
ATOM     15  C   UNL     1      28.788  24.387  25.200  0.00  0.00    +0.000 C 
ATOM     16  C   UNL     1      28.703  24.719  23.659  0.00  0.00    +0.000 C 
ATOM     17  C   UNL     1      29.400  23.809  22.746  0.00  0.00    +0.000 C 
ATOM     18  C   UNL     1      29.182  24.562  21.485  0.00  0.00    +0.000 C 
ATOM     19  C   UNL     1      29.232  26.107  21.906  0.00  0.00    +0.000 C 
ATOM     20  C   UNL     1      29.546  25.929  23.473  0.00  0.00    +0.000 C 
ATOM     21  C   UNL     1      27.556  26.254  22.129  0.00  0.00    +0.000 C 
ATOM     22  O   UNL     1      27.699  27.334  23.164  0.00  0.00    +0.000 OA
ENDROOT
TORSDOF 0
ENDMDL
MODEL 4
REMARK VINA RESULT:      -7.3     13.463     15.055
REMARK  Name = 
REMARK  0 active torsions:
REMARK  status: ('A' for Active; 'I' for Inactive)
REMARK                            x       y       z     vdW  Elec       q    Type
REMARK                         _______ _______ _______ _____ _____    ______ ____
ROOT
ATOM      1  C   UNL     1      24.017   8.729  38.875  0.00  0.00    +0.000 C 
ATOM      2  C   UNL     1      23.994   9.736  37.717  0.00  0.00    +0.000 C 
ATOM      3  C   UNL     1      23.391   9.066  36.546  0.00  0.00    +0.000 C 
ATOM      4  C   UNL     1      21.950   9.385  36.406  0.00  0.00    +0.000 C 
ATOM      5  C   UNL     1      21.433   9.870  37.848  0.00  0.00    +0.000 C 
ATOM      6  C   UNL     1      20.004  10.272  37.374  0.00  0.00    +0.000 A 
ATOM      7  C   UNL     1      19.369   9.561  36.388  0.00  0.00    +0.000 A 
ATOM      8  C   UNL     1      18.078   9.913  35.969  0.00  0.00    +0.000 A 
ATOM      9  C   UNL     1      17.463  10.990  36.571  0.00  0.00    +0.000 A 
ATOM     10  O   UNL     1      16.185  11.319  36.138  0.00  0.00    +0.000 OA
ATOM     11  C   UNL     1      18.130  11.682  37.559  0.00  0.00    +0.000 A 
ATOM     12  C   UNL     1      19.420  11.327  37.975  0.00  0.00    +0.000 A 
ATOM     13  C   UNL     1      20.096  12.088  39.039  0.00  0.00    +0.000 C 
ATOM     14  C   UNL     1      21.545  11.970  39.061  0.00  0.00    +0.000 C 
ATOM     15  C   UNL     1      22.098  11.409  37.660  0.00  0.00    +0.000 C 
ATOM     16  C   UNL     1      23.540  11.004  38.161  0.00  0.00    +0.000 C 
ATOM     17  C   UNL     1      23.831  11.221  39.581  0.00  0.00    +0.000 C 
ATOM     18  C   UNL     1      25.271  10.858  39.561  0.00  0.00    +0.000 C 
ATOM     19  C   UNL     1      25.809  11.357  38.137  0.00  0.00    +0.000 C 
ATOM     20  C   UNL     1      24.455  12.018  37.575  0.00  0.00    +0.000 C 
ATOM     21  C   UNL     1      25.559   9.872  37.355  0.00  0.00    +0.000 C 
ATOM     22  O   UNL     1      25.339  10.514  36.014  0.00  0.00    +0.000 OA
ENDROOT
TORSDOF 0
ENDMDL
MODEL 5
REMARK VINA RESULT:      -7.1     19.561     21.553
REMARK  Name = 
REMARK  0 active torsions:
REMARK  status: ('A' for Active; 'I' for Inactive)
REMARK                            x       y       z     vdW  Elec       q    Type
REMARK                         _______ _______ _______ _____ _____    ______ ____
ROOT
ATOM      1  C   UNL     1      28.020   4.179  15.985  0.00  0.00    +0.000 C 
ATOM      2  C   UNL     1      26.855   5.175  15.892  0.00  0.00    +0.000 C 
ATOM      3  C   UNL     1      26.097   4.872  14.660  0.00  0.00    +0.000 C 
ATOM      4  C   UNL     1      24.910   4.029  14.933  0.00  0.00    +0.000 C 
ATOM      5  C   UNL     1      25.170   3.290  16.336  0.00  0.00    +0.000 C 
ATOM      6  C   UNL     1      23.758   2.639  16.435  0.00  0.00    +0.000 A 
ATOM      7  C   UNL     1      23.105   2.213  15.306  0.00  0.00    +0.000 A 
ATOM      8  C   UNL     1      21.840   1.615  15.393  0.00  0.00    +0.000 A 
ATOM      9  C   UNL     1      21.268   1.466  16.639  0.00  0.00    +0.000 A 
ATOM     10  O   UNL     1      20.014   0.872  16.698  0.00  0.00    +0.000 OA
ATOM     11  C   UNL     1      21.951   1.906  17.752  0.00  0.00    +0.000 A 
ATOM     12  C   UNL     1      23.216   2.502  17.660  0.00  0.00    +0.000 A 
ATOM     13  C   UNL     1      23.917   2.952  18.875  0.00  0.00    +0.000 C 
ATOM     14  C   UNL     1      24.947   3.957  18.660  0.00  0.00    +0.000 C 
ATOM     15  C   UNL     1      24.770   4.664  17.228  0.00  0.00    +0.000 C 
ATOM     16  C   UNL     1      26.208   5.312  17.146  0.00  0.00    +0.000 C 
ATOM     17  C   UNL     1      27.119   5.043  18.262  0.00  0.00    +0.000 C 
ATOM     18  C   UNL     1      28.235   5.931  17.846  0.00  0.00    +0.000 C 
ATOM     19  C   UNL     1      27.530   7.191  17.150  0.00  0.00    +0.000 C 
ATOM     20  C   UNL     1      25.993   6.767  17.363  0.00  0.00    +0.000 C 
ATOM     21  C   UNL     1      27.619   6.560  15.577  0.00  0.00    +0.000 C 
ATOM     22  O   UNL     1      26.392   7.297  15.118  0.00  0.00    +0.000 OA
ENDROOT
TORSDOF 0
ENDMDL
MODEL 6
REMARK VINA RESULT:      -7.0     18.649     21.018
REMARK  Name = 
REMARK  0 active torsions:
REMARK  status: ('A' for Active; 'I' for Inactive)
REMARK                            x       y       z     vdW  Elec       q    Type
REMARK                         _______ _______ _______ _____ _____    ______ ____
ROOT
ATOM      1  C   UNL     1      31.954  24.390  30.620  0.00  0.00    +0.000 C 
ATOM      2  C   UNL     1      31.575  22.922  30.378  0.00  0.00    +0.000 C 
ATOM      3  C   UNL     1      30.191  22.727  30.855  0.00  0.00    +0.000 C 
ATOM      4  C   UNL     1      29.206  22.811  29.751  0.00  0.00    +0.000 C 
ATOM      5  C   UNL     1      29.908  23.624  28.556  0.00  0.00    +0.000 C 
ATOM      6  C   UNL     1      28.754  23.419  27.529  0.00  0.00    +0.000 A 
ATOM      7  C   UNL     1      27.447  23.388  27.944  0.00  0.00    +0.000 A 
ATOM      8  C   UNL     1      26.407  23.216  27.020  0.00  0.00    +0.000 A 
ATOM      9  C   UNL     1      26.728  23.080  25.686  0.00  0.00    +0.000 A 
ATOM     10  O   UNL     1      25.679  22.910  24.792  0.00  0.00    +0.000 OA
ATOM     11  C   UNL     1      28.052  23.115  25.304  0.00  0.00    +0.000 A 
ATOM     12  C   UNL     1      29.089  23.287  26.231  0.00  0.00    +0.000 A 
ATOM     13  C   UNL     1      30.490  23.328  25.781  0.00  0.00    +0.000 C 
ATOM     14  C   UNL     1      31.478  23.025  26.805  0.00  0.00    +0.000 C 
ATOM     15  C   UNL     1      30.800  22.282  28.057  0.00  0.00    +0.000 C 
ATOM     16  C   UNL     1      31.979  22.505  29.084  0.00  0.00    +0.000 C 
ATOM     17  C   UNL     1      33.140  23.260  28.605  0.00  0.00    +0.000 C 
ATOM     18  C   UNL     1      34.010  23.095  29.798  0.00  0.00    +0.000 C 
ATOM     19  C   UNL     1      33.680  21.630  30.357  0.00  0.00    +0.000 C 
ATOM     20  C   UNL     1      32.616  21.171  29.242  0.00  0.00    +0.000 C 
ATOM     21  C   UNL     1      32.497  22.153  31.455  0.00  0.00    +0.000 C 
ATOM     22  O   UNL     1      31.738  20.857  31.390  0.00  0.00    +0.000 OA
ENDROOT
TORSDOF 0
ENDMDL
MODEL 7
REMARK VINA RESULT:      -6.9     19.924     22.962
REMARK  Name = 
REMARK  0 active torsions:
REMARK  status: ('A' for Active; 'I' for Inactive)
REMARK                            x       y       z     vdW  Elec       q    Type
REMARK                         _______ _______ _______ _____ _____    ______ ____
ROOT
ATOM      1  C   UNL     1      25.923  22.793  24.975  0.00  0.00    +0.000 C 
ATOM      2  C   UNL     1      26.522  24.119  25.467  0.00  0.00    +0.000 C 
ATOM      3  C   UNL     1      26.048  24.344  26.848  0.00  0.00    +0.000 C 
ATOM      4  C   UNL     1      27.045  23.911  27.854  0.00  0.00    +0.000 C 
ATOM      5  C   UNL     1      28.019  22.858  27.129  0.00  0.00    +0.000 C 
ATOM      6  C   UNL     1      29.009  22.713  28.323  0.00  0.00    +0.000 A 
ATOM      7  C   UNL     1      28.557  22.769  29.616  0.00  0.00    +0.000 A 
ATOM      8  C   UNL     1      29.445  22.626  30.692  0.00  0.00    +0.000 A 
ATOM      9  C   UNL     1      30.782  22.427  30.419  0.00  0.00    +0.000 A 
ATOM     10  O   UNL     1      31.640  22.288  31.502  0.00  0.00    +0.000 OA
ATOM     11  C   UNL     1      31.202  22.376  29.108  0.00  0.00    +0.000 A 
ATOM     12  C   UNL     1      30.311  22.519  28.035  0.00  0.00    +0.000 A 
ATOM     13  C   UNL     1      30.799  22.450  26.647  0.00  0.00    +0.000 C 
ATOM     14  C   UNL     1      29.936  23.073  25.656  0.00  0.00    +0.000 C 
ATOM     15  C   UNL     1      28.890  24.075  26.351  0.00  0.00    +0.000 C 
ATOM     16  C   UNL     1      27.896  24.206  25.131  0.00  0.00    +0.000 C 
ATOM     17  C   UNL     1      28.216  23.426  23.932  0.00  0.00    +0.000 C 
ATOM     18  C   UNL     1      27.149  23.953  23.044  0.00  0.00    +0.000 C 
ATOM     19  C   UNL     1      26.976  25.490  23.463  0.00  0.00    +0.000 C 
ATOM     20  C   UNL     1      28.121  25.572  24.590  0.00  0.00    +0.000 C 
ATOM     21  C   UNL     1      25.726  25.201  24.574  0.00  0.00    +0.000 C 
ATOM     22  O   UNL     1      26.091  26.383  25.427  0.00  0.00    +0.000 OA
ENDROOT
TORSDOF 0
ENDMDL
MODEL 8
REMARK VINA RESULT:      -6.9     19.461     21.519
REMARK  Name = 
REMARK  0 active torsions:
REMARK  status: ('A' for Active; 'I' for Inactive)
REMARK                            x       y       z     vdW  Elec       q    Type
REMARK                         _______ _______ _______ _____ _____    ______ ____
ROOT
ATOM      1  C   UNL     1      32.427  21.558  29.368  0.00  0.00    +0.000 C 
ATOM      2  C   UNL     1      32.091  23.037  29.126  0.00  0.00    +0.000 C 
ATOM      3  C   UNL     1      32.641  23.415  27.808  0.00  0.00    +0.000 C 
ATOM      4  C   UNL     1      31.615  23.357  26.742  0.00  0.00    +0.000 C 
ATOM      5  C   UNL     1      30.445  22.387  27.265  0.00  0.00    +0.000 C 
ATOM      6  C   UNL     1      29.483  22.640  26.067  0.00  0.00    +0.000 A 
ATOM      7  C   UNL     1      29.979  22.843  24.804  0.00  0.00    +0.000 A 
ATOM      8  C   UNL     1      29.114  23.058  23.721  0.00  0.00    +0.000 A 
ATOM      9  C   UNL     1      27.756  23.060  23.955  0.00  0.00    +0.000 A 
ATOM     10  O   UNL     1      26.921  23.276  22.867  0.00  0.00    +0.000 OA
ATOM     11  C   UNL     1      27.292  22.853  25.237  0.00  0.00    +0.000 A 
ATOM     12  C   UNL     1      28.160  22.638  26.316  0.00  0.00    +0.000 A 
ATOM     13  C   UNL     1      27.624  22.413  27.669  0.00  0.00    +0.000 C 
ATOM     14  C   UNL     1      28.552  22.681  28.756  0.00  0.00    +0.000 C 
ATOM     15  C   UNL     1      29.782  23.584  28.252  0.00  0.00    +0.000 C 
ATOM     16  C   UNL     1      30.744  23.311  29.474  0.00  0.00    +0.000 C 
ATOM     17  C   UNL     1      30.253  22.401  30.513  0.00  0.00    +0.000 C 
ATOM     18  C   UNL     1      31.369  22.558  31.480  0.00  0.00    +0.000 C 
ATOM     19  C   UNL     1      31.827  24.088  31.346  0.00  0.00    +0.000 C 
ATOM     20  C   UNL     1      30.752  24.577  30.255  0.00  0.00    +0.000 C 
ATOM     21  C   UNL     1      33.039  23.779  30.199  0.00  0.00    +0.000 C 
ATOM     22  O   UNL     1      32.919  25.141  29.575  0.00  0.00    +0.000 OA
ENDROOT
TORSDOF 0
ENDMDL
MODEL 9
REMARK VINA RESULT:      -6.8     20.664     22.867
REMARK  Name = 
REMARK  0 active torsions:
REMARK  status: ('A' for Active; 'I' for Inactive)
REMARK                            x       y       z     vdW  Elec       q    Type
REMARK                         _______ _______ _______ _____ _____    ______ ____
ROOT
ATOM      1  C   UNL     1      28.831  25.148  29.879  0.00  0.00    +0.000 C 
ATOM      2  C   UNL     1      27.782  24.244  29.215  0.00  0.00    +0.000 C 
ATOM      3  C   UNL     1      26.942  25.092  28.344  0.00  0.00    +0.000 C 
ATOM      4  C   UNL     1      27.385  25.045  26.931  0.00  0.00    +0.000 C 
ATOM      5  C   UNL     1      28.917  24.558  26.933  0.00  0.00    +0.000 C 
ATOM      6  C   UNL     1      29.049  24.450  25.385  0.00  0.00    +0.000 A 
ATOM      7  C   UNL     1      28.392  25.331  24.564  0.00  0.00    +0.000 A 
ATOM      8  C   UNL     1      28.519  25.244  23.171  0.00  0.00    +0.000 A 
ATOM      9  C   UNL     1      29.322  24.253  22.645  0.00  0.00    +0.000 A 
ATOM     10  O   UNL     1      29.431  24.188  21.262  0.00  0.00    +0.000 OA
ATOM     11  C   UNL     1      29.968  23.385  23.499  0.00  0.00    +0.000 A 
ATOM     12  C   UNL     1      29.837  23.476  24.891  0.00  0.00    +0.000 A 
ATOM     13  C   UNL     1      30.551  22.533  25.769  0.00  0.00    +0.000 C 
ATOM     14  C   UNL     1      29.996  22.391  27.106  0.00  0.00    +0.000 C 
ATOM     15  C   UNL     1      28.489  22.943  27.165  0.00  0.00    +0.000 C 
ATOM     16  C   UNL     1      28.376  23.049  28.737  0.00  0.00    +0.000 C 
ATOM     17  C   UNL     1      29.565  22.683  29.512  0.00  0.00    +0.000 C 
ATOM     18  C   UNL     1      28.975  22.786  30.871  0.00  0.00    +0.000 C 
ATOM     19  C   UNL     1      27.457  22.302  30.705  0.00  0.00    +0.000 C 
ATOM     20  C   UNL     1      27.481  21.933  29.140  0.00  0.00    +0.000 C 
ATOM     21  C   UNL     1      26.830  23.860  30.459  0.00  0.00    +0.000 C 
ATOM     22  O   UNL     1      25.690  23.363  29.616  0.00  0.00    +0.000 OA
ENDROOT
TORSDOF 0
ENDMDL
MODEL 10
REMARK VINA RESULT:      -6.8     19.934     22.376
REMARK  Name = 
REMARK  0 active torsions:
REMARK  status: ('A' for Active; 'I' for Inactive)
REMARK                            x       y       z     vdW  Elec       q    Type
REMARK                         _______ _______ _______ _____ _____    ______ ____
ROOT
ATOM      1  C   UNL     1      31.096  25.450  28.709  0.00  0.00    +0.000 C 
ATOM      2  C   UNL     1      30.596  24.000  28.770  0.00  0.00    +0.000 C 
ATOM      3  C   UNL     1      29.147  24.033  29.054  0.00  0.00    +0.000 C 
ATOM      4  C   UNL     1      28.336  23.904  27.820  0.00  0.00    +0.000 C 
ATOM      5  C   UNL     1      29.279  24.334  26.591  0.00  0.00    +0.000 C 
ATOM      6  C   UNL     1      28.260  23.958  25.474  0.00  0.00    +0.000 A 
ATOM      7  C   UNL     1      26.913  24.128  25.671  0.00  0.00    +0.000 A 
ATOM      8  C   UNL     1      25.995  23.802  24.663  0.00  0.00    +0.000 A 
ATOM      9  C   UNL     1      26.478  23.308  23.469  0.00  0.00    +0.000 A 
ATOM     10  O   UNL     1      25.548  22.993  22.487  0.00  0.00    +0.000 OA
ATOM     11  C   UNL     1      27.837  23.150  23.305  0.00  0.00    +0.000 A 
ATOM     12  C   UNL     1      28.751  23.477  24.316  0.00  0.00    +0.000 A 
ATOM     13  C   UNL     1      30.197  23.301  24.099  0.00  0.00    +0.000 C 
ATOM     14  C   UNL     1      30.998  23.198  25.308  0.00  0.00    +0.000 C 
ATOM     15  C   UNL     1      30.078  22.849  26.579  0.00  0.00    +0.000 C 
ATOM     16  C   UNL     1      31.124  23.239  27.696  0.00  0.00    +0.000 C 
ATOM     17  C   UNL     1      32.415  23.762  27.240  0.00  0.00    +0.000 C 
ATOM     18  C   UNL     1      33.091  23.844  28.560  0.00  0.00    +0.000 C 
ATOM     19  C   UNL     1      32.530  22.596  29.395  0.00  0.00    +0.000 C 
ATOM     20  C   UNL     1      31.583  21.947  28.269  0.00  0.00    +0.000 C 
ATOM     21  C   UNL     1      31.273  23.465  30.133  0.00  0.00    +0.000 C 
ATOM     22  O   UNL     1      30.393  22.254  30.261  0.00  0.00    +0.000 OA
ENDROOT
TORSDOF 0
ENDMDL
