MODEL 1
REMARK VINA RESULT:      -8.3      0.000      0.000
REMARK  Name = 
REMARK  2 active torsions:
REMARK  status: ('A' for Active; 'I' for Inactive)
REMARK    1  A    between atoms: O_2  and  C_3
REMARK    2  A    between atoms: C_7  and  C_8
REMARK                            x       y       z     vdW  Elec       q    Type
REMARK                         _______ _______ _______ _____ _____    ______ ____
ROOT
ATOM      1  C   UNL     1      18.161   9.894  37.088  0.00  0.00    +0.000 C 
ATOM      2  N   UNL     1      17.724  10.186  38.630  0.00  0.00    +0.000 NA
ATOM      3  C   UNL     1      16.376  10.373  38.833  0.00  0.00    +0.000 C 
ATOM      4  O   UNL     1      15.888   9.919  39.896  0.00  0.00    +0.000 OA
ATOM      5  C   UNL     1      15.555  11.088  37.818  0.00  0.00    +0.000 A 
ATOM      6  C   UNL     1      16.218  11.518  36.733  0.00  0.00    +0.000 A 
ATOM      7  S   UNL     1      14.950  12.278  35.823  0.00  0.00    +0.000 S 
ATOM      8  C   UNL     1      13.640  12.009  36.871  0.00  0.00    +0.000 A 
ATOM      9  C   UNL     1      14.216  11.334  37.907  0.00  0.00    +0.000 A 
ATOM     10  C   UNL     1      13.187  10.991  38.985  0.00  0.00    +0.000 C 
ATOM     11  C   UNL     1      12.095  10.245  38.265  0.00  0.00    +0.000 C 
ATOM     12  C   UNL     1      11.357  11.132  37.293  0.00  0.00    +0.000 C 
ATOM     13  C   UNL     1      12.157  12.330  36.873  0.00  0.00    +0.000 C 
ATOM     14  N   UNL     1      17.615  11.298  36.582  0.00  0.00    +0.000 NA
ENDROOT
BRANCH   1  19
ATOM     15  C   UNL     1      21.994  10.124  36.870  0.00  0.00    +0.000 A 
ATOM     16  C   UNL     1      22.240  11.214  37.669  0.00  0.00    +0.000 A 
ATOM     17  C   UNL     1      21.250  11.899  38.286  0.00  0.00    +0.000 A 
ATOM     18  C   UNL     1      19.949  11.443  38.073  0.00  0.00    +0.000 A 
ATOM     19  C   UNL     1      19.658  10.373  37.294  0.00  0.00    +0.000 A 
ATOM     20  C   UNL     1      20.666   9.693  36.678  0.00  0.00    +0.000 A 
BRANCH  15  22
ATOM     21  C   UNL     1      24.160   9.175  37.129  0.00  0.00    +0.000 C 
ATOM     22  O   UNL     1      23.075   9.495  36.286  0.00  0.00    +0.000 OA
ENDBRANCH  15  22
ENDBRANCH   1  19
TORSDOF 2
ENDMDL
MODEL 2
REMARK VINA RESULT:      -8.2      3.558      5.291
REMARK  Name = 
REMARK  2 active torsions:
REMARK  status: ('A' for Active; 'I' for Inactive)
REMARK    1  A    between atoms: O_2  and  C_3
REMARK    2  A    between atoms: C_7  and  C_8
REMARK                            x       y       z     vdW  Elec       q    Type
REMARK                         _______ _______ _______ _____ _____    ______ ____
ROOT
ATOM      1  C   UNL     1      17.054  11.610  36.851  0.00  0.00    +0.000 C 
ATOM      2  N   UNL     1      17.030  10.327  35.847  0.00  0.00    +0.000 NA
ATOM      3  C   UNL     1      16.723  10.611  34.538  0.00  0.00    +0.000 C 
ATOM      4  O   UNL     1      17.320   9.952  33.652  0.00  0.00    +0.000 OA
ATOM      5  C   UNL     1      15.719  11.662  34.212  0.00  0.00    +0.000 A 
ATOM      6  C   UNL     1      15.163  12.280  35.265  0.00  0.00    +0.000 A 
ATOM      7  S   UNL     1      14.081  13.394  34.490  0.00  0.00    +0.000 S 
ATOM      8  C   UNL     1      14.392  13.015  32.863  0.00  0.00    +0.000 A 
ATOM      9  C   UNL     1      15.332  12.030  32.957  0.00  0.00    +0.000 A 
ATOM     10  C   UNL     1      15.756  11.536  31.574  0.00  0.00    +0.000 C 
ATOM     11  C   UNL     1      16.198  12.770  30.832  0.00  0.00    +0.000 C 
ATOM     12  C   UNL     1      15.046  13.709  30.572  0.00  0.00    +0.000 C 
ATOM     13  C   UNL     1      13.897  13.499  31.513  0.00  0.00    +0.000 C 
ATOM     14  N   UNL     1      15.520  11.937  36.599  0.00  0.00    +0.000 NA
ENDROOT
BRANCH   1  19
ATOM     15  C   UNL     1      17.626   9.245  39.829  0.00  0.00    +0.000 A 
ATOM     16  C   UNL     1      16.385   9.253  40.417  0.00  0.00    +0.000 A 
ATOM     17  C   UNL     1      15.353   9.975  39.921  0.00  0.00    +0.000 A 
ATOM     18  C   UNL     1      15.609  10.723  38.772  0.00  0.00    +0.000 A 
ATOM     19  C   UNL     1      16.817  10.746  38.159  0.00  0.00    +0.000 A 
ATOM     20  C   UNL     1      17.847  10.014  38.669  0.00  0.00    +0.000 A 
BRANCH  15  22
ATOM     21  C   UNL     1      18.769   7.161  39.924  0.00  0.00    +0.000 C 
ATOM     22  O   UNL     1      18.612   8.474  40.414  0.00  0.00    +0.000 OA
ENDBRANCH  15  22
ENDBRANCH   1  19
TORSDOF 2
ENDMDL
MODEL 3
REMARK VINA RESULT:      -7.0     30.396     32.844
REMARK  Name = 
REMARK  2 active torsions:
REMARK  status: ('A' for Active; 'I' for Inactive)
REMARK    1  A    between atoms: O_2  and  C_3
REMARK    2  A    between atoms: C_7  and  C_8
REMARK                            x       y       z     vdW  Elec       q    Type
REMARK                         _______ _______ _______ _____ _____    ______ ____
ROOT
ATOM      1  C   UNL     1      30.280  21.587  12.001  0.00  0.00    +0.000 C 
ATOM      2  N   UNL     1      29.628  21.396  10.520  0.00  0.00    +0.000 NA
ATOM      3  C   UNL     1      30.498  20.969   9.545  0.00  0.00    +0.000 C 
ATOM      4  O   UNL     1      30.050  20.175   8.684  0.00  0.00    +0.000 OA
ATOM      5  C   UNL     1      31.909  21.446   9.536  0.00  0.00    +0.000 A 
ATOM      6  C   UNL     1      32.242  22.295  10.521  0.00  0.00    +0.000 A 
ATOM      7  S   UNL     1      33.912  22.609  10.168  0.00  0.00    +0.000 S 
ATOM      8  C   UNL     1      34.102  21.642   8.784  0.00  0.00    +0.000 A 
ATOM      9  C   UNL     1      32.861  21.095   8.624  0.00  0.00    +0.000 A 
ATOM     10  C   UNL     1      32.814  20.174   7.405  0.00  0.00    +0.000 C 
ATOM     11  C   UNL     1      33.927  19.182   7.617  0.00  0.00    +0.000 C 
ATOM     12  C   UNL     1      35.283  19.839   7.554  0.00  0.00    +0.000 C 
ATOM     13  C   UNL     1      35.231  21.314   7.825  0.00  0.00    +0.000 C 
ATOM     14  N   UNL     1      31.293  22.704  11.499  0.00  0.00    +0.000 NA
ENDROOT
BRANCH   1  19
ATOM     15  C   UNL     1      28.389  24.235  14.051  0.00  0.00    +0.000 A 
ATOM     16  C   UNL     1      27.219  24.337  13.338  0.00  0.00    +0.000 A 
ATOM     17  C   UNL     1      26.984  23.607  12.223  0.00  0.00    +0.000 A 
ATOM     18  C   UNL     1      27.995  22.733  11.824  0.00  0.00    +0.000 A 
ATOM     19  C   UNL     1      29.164  22.598  12.496  0.00  0.00    +0.000 A 
ATOM     20  C   UNL     1      29.388  23.341  13.616  0.00  0.00    +0.000 A 
BRANCH  15  22
ATOM     21  C   UNL     1      29.031  26.329  14.978  0.00  0.00    +0.000 C 
ATOM     22  O   UNL     1      28.531  25.025  15.174  0.00  0.00    +0.000 OA
ENDBRANCH  15  22
ENDBRANCH   1  19
TORSDOF 2
ENDMDL
MODEL 4
REMARK VINA RESULT:      -6.9     30.543     33.012
REMARK  Name = 
REMARK  2 active torsions:
REMARK  status: ('A' for Active; 'I' for Inactive)
REMARK    1  A    between atoms: O_2  and  C_3
REMARK    2  A    between atoms: C_7  and  C_8
REMARK                            x       y       z     vdW  Elec       q    Type
REMARK                         _______ _______ _______ _____ _____    ______ ____
ROOT
ATOM      1  C   UNL     1      30.438  21.583  12.039  0.00  0.00    +0.000 C 
ATOM      2  N   UNL     1      29.830  21.468  10.531  0.00  0.00    +0.000 NA
ATOM      3  C   UNL     1      30.732  21.098   9.561  0.00  0.00    +0.000 C 
ATOM      4  O   UNL     1      30.314  20.348   8.645  0.00  0.00    +0.000 OA
ATOM      5  C   UNL     1      32.139  21.581   9.618  0.00  0.00    +0.000 A 
ATOM      6  C   UNL     1      32.438  22.377  10.656  0.00  0.00    +0.000 A 
ATOM      7  S   UNL     1      34.115  22.717  10.369  0.00  0.00    +0.000 S 
ATOM      8  C   UNL     1      34.351  21.827   8.942  0.00  0.00    +0.000 A 
ATOM      9  C   UNL     1      33.119  21.283   8.718  0.00  0.00    +0.000 A 
ATOM     10  C   UNL     1      33.113  20.428   7.450  0.00  0.00    +0.000 C 
ATOM     11  C   UNL     1      34.225  19.431   7.642  0.00  0.00    +0.000 C 
ATOM     12  C   UNL     1      35.579  20.096   7.654  0.00  0.00    +0.000 C 
ATOM     13  C   UNL     1      35.510  21.555   8.000  0.00  0.00    +0.000 C 
ATOM     14  N   UNL     1      31.458  22.729  11.627  0.00  0.00    +0.000 NA
ENDROOT
BRANCH   1  19
ATOM     15  C   UNL     1      27.132  23.529  12.318  0.00  0.00    +0.000 A 
ATOM     16  C   UNL     1      27.354  24.267  13.455  0.00  0.00    +0.000 A 
ATOM     17  C   UNL     1      28.508  24.186  14.158  0.00  0.00    +0.000 A 
ATOM     18  C   UNL     1      29.477  23.309  13.670  0.00  0.00    +0.000 A 
ATOM     19  C   UNL     1      29.302  22.562  12.553  0.00  0.00    +0.000 A 
ATOM     20  C   UNL     1      28.135  22.652  11.856  0.00  0.00    +0.000 A 
BRANCH  15  22
ATOM     21  C   UNL     1      25.602  22.737  10.678  0.00  0.00    +0.000 C 
ATOM     22  O   UNL     1      25.921  23.683  11.675  0.00  0.00    +0.000 OA
ENDBRANCH  15  22
ENDBRANCH   1  19
TORSDOF 2
ENDMDL
MODEL 5
REMARK VINA RESULT:      -6.7     18.505     20.911
REMARK  Name = 
REMARK  2 active torsions:
REMARK  status: ('A' for Active; 'I' for Inactive)
REMARK    1  A    between atoms: O_2  and  C_3
REMARK    2  A    between atoms: C_7  and  C_8
REMARK                            x       y       z     vdW  Elec       q    Type
REMARK                         _______ _______ _______ _____ _____    ______ ____
ROOT
ATOM      1  C   UNL     1      24.594  26.369  26.658  0.00  0.00    +0.000 C 
ATOM      2  N   UNL     1      24.609  24.908  27.380  0.00  0.00    +0.000 NA
ATOM      3  C   UNL     1      25.726  24.143  27.135  0.00  0.00    +0.000 C 
ATOM      4  O   UNL     1      26.155  23.437  28.079  0.00  0.00    +0.000 OA
ATOM      5  C   UNL     1      26.378  24.171  25.797  0.00  0.00    +0.000 A 
ATOM      6  C   UNL     1      25.803  24.974  24.887  0.00  0.00    +0.000 A 
ATOM      7  S   UNL     1      26.824  24.729  23.505  0.00  0.00    +0.000 S 
ATOM      8  C   UNL     1      27.931  23.618  24.156  0.00  0.00    +0.000 A 
ATOM      9  C   UNL     1      27.483  23.459  25.436  0.00  0.00    +0.000 A 
ATOM     10  C   UNL     1      28.358  22.473  26.211  0.00  0.00    +0.000 C 
ATOM     11  C   UNL     1      29.760  23.009  26.087  0.00  0.00    +0.000 C 
ATOM     12  C   UNL     1      30.264  22.939  24.666  0.00  0.00    +0.000 C 
ATOM     13  C   UNL     1      29.155  22.872  23.657  0.00  0.00    +0.000 C 
ATOM     14  N   UNL     1      24.644  25.738  25.200  0.00  0.00    +0.000 NA
ENDROOT
BRANCH   1  19
ATOM     15  C   UNL     1      20.953  26.318  27.895  0.00  0.00    +0.000 A 
ATOM     16  C   UNL     1      20.288  26.767  26.780  0.00  0.00    +0.000 A 
ATOM     17  C   UNL     1      20.931  27.093  25.635  0.00  0.00    +0.000 A 
ATOM     18  C   UNL     1      22.318  26.953  25.636  0.00  0.00    +0.000 A 
ATOM     19  C   UNL     1      23.017  26.515  26.711  0.00  0.00    +0.000 A 
ATOM     20  C   UNL     1      22.357  26.190  27.858  0.00  0.00    +0.000 A 
BRANCH  15  22
ATOM     21  C   UNL     1      19.014  25.286  28.806  0.00  0.00    +0.000 C 
ATOM     22  O   UNL     1      20.205  26.012  29.014  0.00  0.00    +0.000 OA
ENDBRANCH  15  22
ENDBRANCH   1  19
TORSDOF 2
ENDMDL
MODEL 6
REMARK VINA RESULT:      -6.7      2.076      7.813
REMARK  Name = 
REMARK  2 active torsions:
REMARK  status: ('A' for Active; 'I' for Inactive)
REMARK    1  A    between atoms: O_2  and  C_3
REMARK    2  A    between atoms: C_7  and  C_8
REMARK                            x       y       z     vdW  Elec       q    Type
REMARK                         _______ _______ _______ _____ _____    ______ ____
ROOT
ATOM      1  C   UNL     1      17.286  10.493  38.152  0.00  0.00    +0.000 C 
ATOM      2  N   UNL     1      17.810  10.059  36.672  0.00  0.00    +0.000 NA
ATOM      3  C   UNL     1      19.168   9.874  36.560  0.00  0.00    +0.000 C 
ATOM      4  O   UNL     1      19.562   8.949  35.809  0.00  0.00    +0.000 OA
ATOM      5  C   UNL     1      20.110  10.749  37.311  0.00  0.00    +0.000 A 
ATOM      6  C   UNL     1      19.541  11.696  38.073  0.00  0.00    +0.000 A 
ATOM      7  S   UNL     1      20.930  12.481  38.757  0.00  0.00    +0.000 S 
ATOM      8  C   UNL     1      22.165  11.562  38.038  0.00  0.00    +0.000 A 
ATOM      9  C   UNL     1      21.471  10.664  37.280  0.00  0.00    +0.000 A 
ATOM     10  C   UNL     1      22.417   9.724  36.531  0.00  0.00    +0.000 C 
ATOM     11  C   UNL     1      23.294   9.118  37.594  0.00  0.00    +0.000 C 
ATOM     12  C   UNL     1      24.195  10.148  38.230  0.00  0.00    +0.000 C 
ATOM     13  C   UNL     1      23.682  11.549  38.074  0.00  0.00    +0.000 C 
ATOM     14  N   UNL     1      18.127  11.841  38.143  0.00  0.00    +0.000 NA
ENDROOT
BRANCH   1  19
ATOM     15  C   UNL     1      13.564  11.337  37.678  0.00  0.00    +0.000 A 
ATOM     16  C   UNL     1      13.630  12.276  36.678  0.00  0.00    +0.000 A 
ATOM     17  C   UNL     1      14.803  12.672  36.131  0.00  0.00    +0.000 A 
ATOM     18  C   UNL     1      15.959  12.074  36.634  0.00  0.00    +0.000 A 
ATOM     19  C   UNL     1      15.943  11.144  37.619  0.00  0.00    +0.000 A 
ATOM     20  C   UNL     1      14.754  10.756  38.161  0.00  0.00    +0.000 A 
BRANCH  15  22
ATOM     21  C   UNL     1      11.203  11.393  37.396  0.00  0.00    +0.000 C 
ATOM     22  O   UNL     1      12.317  11.004  38.169  0.00  0.00    +0.000 OA
ENDBRANCH  15  22
ENDBRANCH   1  19
TORSDOF 2
ENDMDL
MODEL 7
REMARK VINA RESULT:      -6.6      2.883      8.542
REMARK  Name = 
REMARK  2 active torsions:
REMARK  status: ('A' for Active; 'I' for Inactive)
REMARK    1  A    between atoms: O_2  and  C_3
REMARK    2  A    between atoms: C_7  and  C_8
REMARK                            x       y       z     vdW  Elec       q    Type
REMARK                         _______ _______ _______ _____ _____    ______ ____
ROOT
ATOM      1  C   UNL     1      20.225   9.995  37.945  0.00  0.00    +0.000 C 
ATOM      2  N   UNL     1      21.096   9.637  36.614  0.00  0.00    +0.000 NA
ATOM      3  C   UNL     1      22.450   9.849  36.724  0.00  0.00    +0.000 C 
ATOM      4  O   UNL     1      23.207   9.032  36.146  0.00  0.00    +0.000 OA
ATOM      5  C   UNL     1      22.969  11.008  37.502  0.00  0.00    +0.000 A 
ATOM      6  C   UNL     1      22.038  11.795  38.063  0.00  0.00    +0.000 A 
ATOM      7  S   UNL     1      23.016  12.992  38.851  0.00  0.00    +0.000 S 
ATOM      8  C   UNL     1      24.561  12.429  38.428  0.00  0.00    +0.000 A 
ATOM      9  C   UNL     1      24.285  11.321  37.681  0.00  0.00    +0.000 A 
ATOM     10  C   UNL     1      25.568  10.650  37.188  0.00  0.00    +0.000 C 
ATOM     11  C   UNL     1      26.382  10.396  38.429  0.00  0.00    +0.000 C 
ATOM     12  C   UNL     1      26.839  11.682  39.071  0.00  0.00    +0.000 C 
ATOM     13  C   UNL     1      25.993  12.861  38.687  0.00  0.00    +0.000 C 
ATOM     14  N   UNL     1      20.649  11.526  37.909  0.00  0.00    +0.000 NA
ENDROOT
BRANCH   1  19
ATOM     15  C   UNL     1      16.702  11.177  36.954  0.00  0.00    +0.000 A 
ATOM     16  C   UNL     1      16.522  10.509  35.768  0.00  0.00    +0.000 A 
ATOM     17  C   UNL     1      17.465   9.690  35.246  0.00  0.00    +0.000 A 
ATOM     18  C   UNL     1      18.644   9.552  35.977  0.00  0.00    +0.000 A 
ATOM     19  C   UNL     1      18.867  10.190  37.152  0.00  0.00    +0.000 A 
ATOM     20  C   UNL     1      17.909  11.012  37.664  0.00  0.00    +0.000 A 
BRANCH  15  22
ATOM     21  C   UNL     1      14.500  11.350  37.836  0.00  0.00    +0.000 C 
ATOM     22  O   UNL     1      15.678  11.990  37.399  0.00  0.00    +0.000 OA
ENDBRANCH  15  22
ENDBRANCH   1  19
TORSDOF 2
ENDMDL
MODEL 8
REMARK VINA RESULT:      -6.5     18.743     20.155
REMARK  Name = 
REMARK  2 active torsions:
REMARK  status: ('A' for Active; 'I' for Inactive)
REMARK    1  A    between atoms: O_2  and  C_3
REMARK    2  A    between atoms: C_7  and  C_8
REMARK                            x       y       z     vdW  Elec       q    Type
REMARK                         _______ _______ _______ _____ _____    ______ ____
ROOT
ATOM      1  C   UNL     1      26.047  23.346  25.856  0.00  0.00    +0.000 C 
ATOM      2  N   UNL     1      26.431  23.954  27.319  0.00  0.00    +0.000 NA
ATOM      3  C   UNL     1      25.464  24.740  27.901  0.00  0.00    +0.000 C 
ATOM      4  O   UNL     1      25.330  24.658  29.146  0.00  0.00    +0.000 OA
ATOM      5  C   UNL     1      24.624  25.642  27.065  0.00  0.00    +0.000 A 
ATOM      6  C   UNL     1      24.884  25.622  25.748  0.00  0.00    +0.000 A 
ATOM      7  S   UNL     1      23.735  26.773  25.144  0.00  0.00    +0.000 S 
ATOM      8  C   UNL     1      22.980  27.220  26.599  0.00  0.00    +0.000 A 
ATOM      9  C   UNL     1      23.639  26.465  27.525  0.00  0.00    +0.000 A 
ATOM     10  C   UNL     1      23.104  26.724  28.934  0.00  0.00    +0.000 C 
ATOM     11  C   UNL     1      21.621  26.475  28.844  0.00  0.00    +0.000 C 
ATOM     12  C   UNL     1      20.933  27.497  27.974  0.00  0.00    +0.000 C 
ATOM     13  C   UNL     1      21.867  28.166  27.009  0.00  0.00    +0.000 C 
ATOM     14  N   UNL     1      25.903  24.789  25.206  0.00  0.00    +0.000 NA
ENDROOT
BRANCH   1  19
ATOM     15  C   UNL     1      29.305  23.372  23.813  0.00  0.00    +0.000 A 
ATOM     16  C   UNL     1      30.163  22.731  24.673  0.00  0.00    +0.000 A 
ATOM     17  C   UNL     1      29.770  22.282  25.888  0.00  0.00    +0.000 A 
ATOM     18  C   UNL     1      28.436  22.501  26.233  0.00  0.00    +0.000 A 
ATOM     19  C   UNL     1      27.554  23.127  25.417  0.00  0.00    +0.000 A 
ATOM     20  C   UNL     1      27.964  23.575  24.197  0.00  0.00    +0.000 A 
BRANCH  15  22
ATOM     21  C   UNL     1      28.897  24.411  21.713  0.00  0.00    +0.000 C 
ATOM     22  O   UNL     1      29.806  23.792  22.597  0.00  0.00    +0.000 OA
ENDBRANCH  15  22
ENDBRANCH   1  19
TORSDOF 2
ENDMDL
MODEL 9
REMARK VINA RESULT:      -6.4     18.013     20.493
REMARK  Name = 
REMARK  2 active torsions:
REMARK  status: ('A' for Active; 'I' for Inactive)
REMARK    1  A    between atoms: O_2  and  C_3
REMARK    2  A    between atoms: C_7  and  C_8
REMARK                            x       y       z     vdW  Elec       q    Type
REMARK                         _______ _______ _______ _____ _____    ______ ____
ROOT
ATOM      1  C   UNL     1      30.509  23.687  28.215  0.00  0.00    +0.000 C 
ATOM      2  N   UNL     1      31.153  22.710  27.081  0.00  0.00    +0.000 NA
ATOM      3  C   UNL     1      30.576  22.797  25.835  0.00  0.00    +0.000 C 
ATOM      4  O   UNL     1      31.337  22.689  24.842  0.00  0.00    +0.000 OA
ATOM      5  C   UNL     1      29.109  23.009  25.699  0.00  0.00    +0.000 A 
ATOM      6  C   UNL     1      28.426  23.102  26.850  0.00  0.00    +0.000 A 
ATOM      7  S   UNL     1      26.803  23.335  26.281  0.00  0.00    +0.000 S 
ATOM      8  C   UNL     1      27.077  23.301  24.605  0.00  0.00    +0.000 A 
ATOM      9  C   UNL     1      28.425  23.109  24.522  0.00  0.00    +0.000 A 
ATOM     10  C   UNL     1      28.888  23.045  23.067  0.00  0.00    +0.000 C 
ATOM     11  C   UNL     1      28.385  24.316  22.436  0.00  0.00    +0.000 C 
ATOM     12  C   UNL     1      26.878  24.347  22.363  0.00  0.00    +0.000 C 
ATOM     13  C   UNL     1      26.227  23.428  23.354  0.00  0.00    +0.000 C 
ATOM     14  N   UNL     1      29.080  23.000  28.110  0.00  0.00    +0.000 NA
ENDROOT
BRANCH   1  19
ATOM     15  C   UNL     1      30.865  22.153  31.724  0.00  0.00    +0.000 A 
ATOM     16  C   UNL     1      31.911  21.285  31.529  0.00  0.00    +0.000 A 
ATOM     17  C   UNL     1      32.526  21.148  30.331  0.00  0.00    +0.000 A 
ATOM     18  C   UNL     1      32.044  21.938  29.288  0.00  0.00    +0.000 A 
ATOM     19  C   UNL     1      31.015  22.808  29.433  0.00  0.00    +0.000 A 
ATOM     20  C   UNL     1      30.405  22.935  30.645  0.00  0.00    +0.000 A 
BRANCH  15  22
ATOM     21  C   UNL     1      30.677  21.210  33.899  0.00  0.00    +0.000 C 
ATOM     22  O   UNL     1      30.306  22.217  32.985  0.00  0.00    +0.000 OA
ENDBRANCH  15  22
ENDBRANCH   1  19
TORSDOF 2
ENDMDL
MODEL 10
REMARK VINA RESULT:      -6.4      4.329      6.566
REMARK  Name = 
REMARK  2 active torsions:
REMARK  status: ('A' for Active; 'I' for Inactive)
REMARK    1  A    between atoms: O_2  and  C_3
REMARK    2  A    between atoms: C_7  and  C_8
REMARK                            x       y       z     vdW  Elec       q    Type
REMARK                         _______ _______ _______ _____ _____    ______ ____
ROOT
ATOM      1  C   UNL     1      18.253   9.687  39.234  0.00  0.00    +0.000 C 
ATOM      2  N   UNL     1      16.688   9.694  39.690  0.00  0.00    +0.000 NA
ATOM      3  C   UNL     1      16.412   9.014  40.854  0.00  0.00    +0.000 C 
ATOM      4  O   UNL     1      15.535   9.500  41.608  0.00  0.00    +0.000 OA
ATOM      5  C   UNL     1      17.139   7.756  41.180  0.00  0.00    +0.000 A 
ATOM      6  C   UNL     1      18.048   7.360  40.277  0.00  0.00    +0.000 A 
ATOM      7  S   UNL     1      18.652   5.902  40.999  0.00  0.00    +0.000 S 
ATOM      8  C   UNL     1      17.716   5.872  42.417  0.00  0.00    +0.000 A 
ATOM      9  C   UNL     1      16.952   6.997  42.298  0.00  0.00    +0.000 A 
ATOM     10  C   UNL     1      16.016   7.160  43.496  0.00  0.00    +0.000 C 
ATOM     11  C   UNL     1      16.912   7.122  44.705  0.00  0.00    +0.000 C 
ATOM     12  C   UNL     1      17.546   5.765  44.891  0.00  0.00    +0.000 C 
ATOM     13  C   UNL     1      17.586   4.962  43.624  0.00  0.00    +0.000 C 
ATOM     14  N   UNL     1      18.286   8.104  39.088  0.00  0.00    +0.000 NA
ENDROOT
BRANCH   1  19
ATOM     15  C   UNL     1      16.623  11.056  36.031  0.00  0.00    +0.000 A 
ATOM     16  C   UNL     1      17.400  10.464  35.065  0.00  0.00    +0.000 A 
ATOM     17  C   UNL     1      18.432   9.642  35.367  0.00  0.00    +0.000 A 
ATOM     18  C   UNL     1      18.675   9.417  36.722  0.00  0.00    +0.000 A 
ATOM     19  C   UNL     1      17.936   9.978  37.709  0.00  0.00    +0.000 A 
ATOM     20  C   UNL     1      16.900  10.805  37.390  0.00  0.00    +0.000 A 
BRANCH  15  22
ATOM     21  C   UNL     1      14.452  11.937  36.444  0.00  0.00    +0.000 C 
ATOM     22  O   UNL     1      15.595  11.879  35.618  0.00  0.00    +0.000 OA
ENDBRANCH  15  22
ENDBRANCH   1  19
TORSDOF 2
ENDMDL
