MODEL 1
REMARK VINA RESULT:      -7.5      0.000      0.000
REMARK  Name = 
REMARK  4 active torsions:
REMARK  status: ('A' for Active; 'I' for Inactive)
REMARK    1  A    between atoms: C_2  and  O_3
REMARK    2  A    between atoms: O_3  and  C_4
REMARK    3  A    between atoms: C_15  and  O_16
REMARK    4  A    between atoms: O_16  and  C_17
REMARK                            x       y       z     vdW  Elec       q    Type
REMARK                         _______ _______ _______ _____ _____    ______ ____
ROOT
ATOM      1  C   UNL     1      17.474   9.994  38.317  0.00  0.00    +0.000 A 
ATOM      2  C   UNL     1      18.324   9.394  37.413  0.00  0.00    +0.000 A 
ATOM      3  C   UNL     1      18.123   9.529  36.053  0.00  0.00    +0.000 A 
ATOM      4  C   UNL     1      17.073  10.264  35.539  0.00  0.00    +0.000 A 
ATOM      5  C   UNL     1      16.221  10.865  36.436  0.00  0.00    +0.000 A 
ATOM      6  C   UNL     1      16.425  10.728  37.802  0.00  0.00    +0.000 A 
ATOM      7  C   UNL     1      15.231  11.557  35.634  0.00  0.00    +0.000 C 
ATOM      8  N   UNL     1      14.256  12.244  36.097  0.00  0.00    +0.000 NA
ATOM      9  N   UNL     1      14.014  12.419  37.461  0.00  0.00    +0.000 NA
ATOM     10  C   UNL     1      15.526  11.343  34.229  0.00  0.00    +0.000 A 
ATOM     11  C   UNL     1      14.974  11.726  33.032  0.00  0.00    +0.000 A 
ATOM     12  C   UNL     1      15.475  11.369  31.798  0.00  0.00    +0.000 A 
ATOM     13  C   UNL     1      16.596  10.582  31.775  0.00  0.00    +0.000 A 
ATOM     14  C   UNL     1      17.192  10.169  32.929  0.00  0.00    +0.000 A 
ATOM     15  C   UNL     1      16.661  10.547  34.144  0.00  0.00    +0.000 A 
ENDROOT
BRANCH   1  16
ATOM     16  O   UNL     1      17.676   9.859  39.689  0.00  0.00    +0.000 OA
BRANCH  16  18
ATOM     17  C   UNL     1      17.163   7.768  40.820  0.00  0.00    +0.000 C 
ATOM     18  C   UNL     1      16.758   9.166  40.491  0.00  0.00    +0.000 C 
ENDBRANCH  16  18
ENDBRANCH   1  16
BRANCH  12  19
ATOM     19  O   UNL     1      14.835  11.814  30.655  0.00  0.00    +0.000 OA
BRANCH  19  20
ATOM     20  C   UNL     1      14.670  13.201  30.457  0.00  0.00    +0.000 C 
ATOM     21  C   UNL     1      16.031  13.790  30.170  0.00  0.00    +0.000 C 
ENDBRANCH  19  20
ENDBRANCH  12  19
TORSDOF 4
ENDMDL
MODEL 2
REMARK VINA RESULT:      -6.4     17.978     19.307
REMARK  Name = 
REMARK  4 active torsions:
REMARK  status: ('A' for Active; 'I' for Inactive)
REMARK    1  A    between atoms: C_2  and  O_3
REMARK    2  A    between atoms: O_3  and  C_4
REMARK    3  A    between atoms: C_15  and  O_16
REMARK    4  A    between atoms: O_16  and  C_17
REMARK                            x       y       z     vdW  Elec       q    Type
REMARK                         _______ _______ _______ _____ _____    ______ ____
ROOT
ATOM      1  C   UNL     1      29.971  22.511  30.788  0.00  0.00    +0.000 A 
ATOM      2  C   UNL     1      31.134  22.296  30.081  0.00  0.00    +0.000 A 
ATOM      3  C   UNL     1      31.144  22.345  28.699  0.00  0.00    +0.000 A 
ATOM      4  C   UNL     1      30.001  22.609  27.970  0.00  0.00    +0.000 A 
ATOM      5  C   UNL     1      28.837  22.824  28.671  0.00  0.00    +0.000 A 
ATOM      6  C   UNL     1      28.830  22.774  30.058  0.00  0.00    +0.000 A 
ATOM      7  C   UNL     1      27.817  23.073  27.670  0.00  0.00    +0.000 C 
ATOM      8  N   UNL     1      26.586  23.319  27.918  0.00  0.00    +0.000 NA
ATOM      9  N   UNL     1      26.055  23.381  29.209  0.00  0.00    +0.000 NA
ATOM     10  C   UNL     1      28.419  22.997  26.352  0.00  0.00    +0.000 A 
ATOM     11  C   UNL     1      27.985  23.135  25.056  0.00  0.00    +0.000 A 
ATOM     12  C   UNL     1      28.798  23.008  23.950  0.00  0.00    +0.000 A 
ATOM     13  C   UNL     1      30.121  22.726  24.166  0.00  0.00    +0.000 A 
ATOM     14  C   UNL     1      30.613  22.577  25.429  0.00  0.00    +0.000 A 
ATOM     15  C   UNL     1      29.769  22.712  26.510  0.00  0.00    +0.000 A 
ENDROOT
BRANCH   1  16
ATOM     16  O   UNL     1      29.960  22.462  32.181  0.00  0.00    +0.000 OA
BRANCH  16  18
ATOM     17  C   UNL     1      30.660  21.605  34.347  0.00  0.00    +0.000 C 
ATOM     18  C   UNL     1      30.562  21.400  32.872  0.00  0.00    +0.000 C 
ENDBRANCH  16  18
ENDBRANCH   1  16
BRANCH  12  19
ATOM     19  O   UNL     1      28.251  23.169  22.689  0.00  0.00    +0.000 OA
BRANCH  19  20
ATOM     20  C   UNL     1      28.031  24.473  22.198  0.00  0.00    +0.000 C 
ATOM     21  C   UNL     1      29.207  24.840  21.323  0.00  0.00    +0.000 C 
ENDBRANCH  19  20
ENDBRANCH  12  19
TORSDOF 4
ENDMDL
MODEL 3
REMARK VINA RESULT:      -6.3     18.117     20.627
REMARK  Name = 
REMARK  4 active torsions:
REMARK  status: ('A' for Active; 'I' for Inactive)
REMARK    1  A    between atoms: C_2  and  O_3
REMARK    2  A    between atoms: O_3  and  C_4
REMARK    3  A    between atoms: C_15  and  O_16
REMARK    4  A    between atoms: O_16  and  C_17
REMARK                            x       y       z     vdW  Elec       q    Type
REMARK                         _______ _______ _______ _____ _____    ______ ____
ROOT
ATOM      1  C   UNL     1      28.663  23.036  23.920  0.00  0.00    +0.000 A 
ATOM      2  C   UNL     1      29.987  22.688  24.082  0.00  0.00    +0.000 A 
ATOM      3  C   UNL     1      30.528  22.521  25.342  0.00  0.00    +0.000 A 
ATOM      4  C   UNL     1      29.777  22.692  26.488  0.00  0.00    +0.000 A 
ATOM      5  C   UNL     1      28.455  23.039  26.333  0.00  0.00    +0.000 A 
ATOM      6  C   UNL     1      27.914  23.207  25.065  0.00  0.00    +0.000 A 
ATOM      7  C   UNL     1      27.918  23.150  27.676  0.00  0.00    +0.000 C 
ATOM      8  N   UNL     1      26.710  23.458  27.964  0.00  0.00    +0.000 NA
ATOM      9  N   UNL     1      25.733  23.733  27.004  0.00  0.00    +0.000 NA
ATOM     10  C   UNL     1      28.969  22.857  28.631  0.00  0.00    +0.000 A 
ATOM     11  C   UNL     1      29.077  22.800  29.999  0.00  0.00    +0.000 A 
ATOM     12  C   UNL     1      30.237  22.483  30.673  0.00  0.00    +0.000 A 
ATOM     13  C   UNL     1      31.350  22.210  29.922  0.00  0.00    +0.000 A 
ATOM     14  C   UNL     1      31.309  22.249  28.560  0.00  0.00    +0.000 A 
ATOM     15  C   UNL     1      30.129  22.570  27.922  0.00  0.00    +0.000 A 
ENDROOT
BRANCH   1  16
ATOM     16  O   UNL     1      28.117  23.205  22.649  0.00  0.00    +0.000 OA
BRANCH  16  18
ATOM     17  C   UNL     1      29.095  24.966  21.287  0.00  0.00    +0.000 C 
ATOM     18  C   UNL     1      27.941  24.483  22.100  0.00  0.00    +0.000 C 
ENDBRANCH  16  18
ENDBRANCH   1  16
BRANCH  12  19
ATOM     19  O   UNL     1      30.229  22.456  32.056  0.00  0.00    +0.000 OA
BRANCH  19  20
ATOM     20  C   UNL     1      30.943  21.440  32.726  0.00  0.00    +0.000 C 
ATOM     21  C   UNL     1      30.593  21.522  34.194  0.00  0.00    +0.000 C 
ENDBRANCH  19  20
ENDBRANCH  12  19
TORSDOF 4
ENDMDL
MODEL 4
REMARK VINA RESULT:      -6.1     18.993     20.948
REMARK  Name = 
REMARK  4 active torsions:
REMARK  status: ('A' for Active; 'I' for Inactive)
REMARK    1  A    between atoms: C_2  and  O_3
REMARK    2  A    between atoms: O_3  and  C_4
REMARK    3  A    between atoms: C_15  and  O_16
REMARK    4  A    between atoms: O_16  and  C_17
REMARK                            x       y       z     vdW  Elec       q    Type
REMARK                         _______ _______ _______ _____ _____    ______ ____
ROOT
ATOM      1  C   UNL     1      33.721   4.702  34.856  0.00  0.00    +0.000 A 
ATOM      2  C   UNL     1      33.565   4.188  33.586  0.00  0.00    +0.000 A 
ATOM      3  C   UNL     1      33.552   2.823  33.370  0.00  0.00    +0.000 A 
ATOM      4  C   UNL     1      33.692   1.919  34.404  0.00  0.00    +0.000 A 
ATOM      5  C   UNL     1      33.848   2.426  35.673  0.00  0.00    +0.000 A 
ATOM      6  C   UNL     1      33.861   3.798  35.888  0.00  0.00    +0.000 A 
ATOM      7  C   UNL     1      33.971   1.273  36.544  0.00  0.00    +0.000 C 
ATOM      8  N   UNL     1      34.131   1.321  37.813  0.00  0.00    +0.000 NA
ATOM      9  N   UNL     1      34.211   2.513  38.537  0.00  0.00    +0.000 NA
ATOM     10  C   UNL     1      33.882   0.065  35.746  0.00  0.00    +0.000 A 
ATOM     11  C   UNL     1      33.927  -1.286  35.986  0.00  0.00    +0.000 A 
ATOM     12  C   UNL     1      33.812  -2.251  35.008  0.00  0.00    +0.000 A 
ATOM     13  C   UNL     1      33.644  -1.826  33.716  0.00  0.00    +0.000 A 
ATOM     14  C   UNL     1      33.592  -0.498  33.413  0.00  0.00    +0.000 A 
ATOM     15  C   UNL     1      33.709   0.437  34.419  0.00  0.00    +0.000 A 
ENDROOT
BRANCH   1  16
ATOM     16  O   UNL     1      33.734   6.079  35.074  0.00  0.00    +0.000 OA
BRANCH  16  18
ATOM     17  C   UNL     1      36.100   6.633  34.985  0.00  0.00    +0.000 C 
ATOM     18  C   UNL     1      34.808   6.698  35.729  0.00  0.00    +0.000 C 
ENDBRANCH  16  18
ENDBRANCH   1  16
BRANCH  12  19
ATOM     19  O   UNL     1      33.871  -3.586  35.367  0.00  0.00    +0.000 OA
BRANCH  19  20
ATOM     20  C   UNL     1      33.763  -4.572  34.362  0.00  0.00    +0.000 C 
ATOM     21  C   UNL     1      32.530  -5.394  34.654  0.00  0.00    +0.000 C 
ENDBRANCH  19  20
ENDBRANCH  12  19
TORSDOF 4
ENDMDL
MODEL 5
REMARK VINA RESULT:      -6.0     19.449     21.226
REMARK  Name = 
REMARK  4 active torsions:
REMARK  status: ('A' for Active; 'I' for Inactive)
REMARK    1  A    between atoms: C_2  and  O_3
REMARK    2  A    between atoms: O_3  and  C_4
REMARK    3  A    between atoms: C_15  and  O_16
REMARK    4  A    between atoms: O_16  and  C_17
REMARK                            x       y       z     vdW  Elec       q    Type
REMARK                         _______ _______ _______ _____ _____    ______ ____
ROOT
ATOM      1  C   UNL     1      33.368  -3.808  35.131  0.00  0.00    +0.000 A 
ATOM      2  C   UNL     1      33.569  -3.593  33.785  0.00  0.00    +0.000 A 
ATOM      3  C   UNL     1      33.694  -2.311  33.282  0.00  0.00    +0.000 A 
ATOM      4  C   UNL     1      33.625  -1.198  34.096  0.00  0.00    +0.000 A 
ATOM      5  C   UNL     1      33.424  -1.407  35.441  0.00  0.00    +0.000 A 
ATOM      6  C   UNL     1      33.299  -2.695  35.943  0.00  0.00    +0.000 A 
ATOM      7  C   UNL     1      33.394  -0.088  36.042  0.00  0.00    +0.000 C 
ATOM      8  N   UNL     1      33.227   0.151  37.289  0.00  0.00    +0.000 NA
ATOM      9  N   UNL     1      33.048  -0.848  38.248  0.00  0.00    +0.000 NA
ATOM     10  C   UNL     1      33.583   0.910  35.006  0.00  0.00    +0.000 A 
ATOM     11  C   UNL     1      33.648   2.280  34.950  0.00  0.00    +0.000 A 
ATOM     12  C   UNL     1      33.843   3.000  33.791  0.00  0.00    +0.000 A 
ATOM     13  C   UNL     1      33.980   2.296  32.625  0.00  0.00    +0.000 A 
ATOM     14  C   UNL     1      33.925   0.934  32.613  0.00  0.00    +0.000 A 
ATOM     15  C   UNL     1      33.728   0.249  33.793  0.00  0.00    +0.000 A 
ENDROOT
BRANCH   1  16
ATOM     16  O   UNL     1      33.242  -5.100  35.639  0.00  0.00    +0.000 OA
BRANCH  16  18
ATOM     17  C   UNL     1      35.516  -5.916  35.929  0.00  0.00    +0.000 C 
ATOM     18  C   UNL     1      34.170  -6.100  35.311  0.00  0.00    +0.000 C 
ENDBRANCH  16  18
ENDBRANCH   1  16
BRANCH  12  19
ATOM     19  O   UNL     1      33.892   4.382  33.855  0.00  0.00    +0.000 OA
BRANCH  19  20
ATOM     20  C   UNL     1      34.098   5.004  35.105  0.00  0.00    +0.000 C 
ATOM     21  C   UNL     1      35.303   5.906  34.978  0.00  0.00    +0.000 C 
ENDBRANCH  19  20
ENDBRANCH  12  19
TORSDOF 4
ENDMDL
MODEL 6
REMARK VINA RESULT:      -6.0     17.948     20.599
REMARK  Name = 
REMARK  4 active torsions:
REMARK  status: ('A' for Active; 'I' for Inactive)
REMARK    1  A    between atoms: C_2  and  O_3
REMARK    2  A    between atoms: O_3  and  C_4
REMARK    3  A    between atoms: C_15  and  O_16
REMARK    4  A    between atoms: O_16  and  C_17
REMARK                            x       y       z     vdW  Elec       q    Type
REMARK                         _______ _______ _______ _____ _____    ______ ____
ROOT
ATOM      1  C   UNL     1      27.361  23.256  23.586  0.00  0.00    +0.000 A 
ATOM      2  C   UNL     1      26.188  23.230  24.309  0.00  0.00    +0.000 A 
ATOM      3  C   UNL     1      26.207  23.122  25.687  0.00  0.00    +0.000 A 
ATOM      4  C   UNL     1      27.388  23.038  26.397  0.00  0.00    +0.000 A 
ATOM      5  C   UNL     1      28.562  23.064  25.681  0.00  0.00    +0.000 A 
ATOM      6  C   UNL     1      28.540  23.172  24.296  0.00  0.00    +0.000 A 
ATOM      7  C   UNL     1      29.624  22.962  26.663  0.00  0.00    +0.000 C 
ATOM      8  N   UNL     1      30.875  22.951  26.397  0.00  0.00    +0.000 NA
ATOM      9  N   UNL     1      31.391  23.038  25.102  0.00  0.00    +0.000 NA
ATOM     10  C   UNL     1      29.037  22.874  27.987  0.00  0.00    +0.000 A 
ATOM     11  C   UNL     1      29.506  22.763  29.273  0.00  0.00    +0.000 A 
ATOM     12  C   UNL     1      28.699  22.697  30.388  0.00  0.00    +0.000 A 
ATOM     13  C   UNL     1      27.344  22.746  30.193  0.00  0.00    +0.000 A 
ATOM     14  C   UNL     1      26.816  22.856  28.942  0.00  0.00    +0.000 A 
ATOM     15  C   UNL     1      27.656  22.920  27.850  0.00  0.00    +0.000 A 
ENDROOT
BRANCH   1  16
ATOM     16  O   UNL     1      27.343  23.364  22.196  0.00  0.00    +0.000 OA
BRANCH  16  18
ATOM     17  C   UNL     1      27.969  25.610  21.502  0.00  0.00    +0.000 C 
ATOM     18  C   UNL     1      28.286  24.152  21.520  0.00  0.00    +0.000 C 
ENDBRANCH  16  18
ENDBRANCH   1  16
BRANCH  12  19
ATOM     19  O   UNL     1      29.284  22.586  31.638  0.00  0.00    +0.000 OA
BRANCH  19  20
ATOM     20  C   UNL     1      30.665  22.312  31.727  0.00  0.00    +0.000 C 
ATOM     21  C   UNL     1      30.862  21.295  32.827  0.00  0.00    +0.000 C 
ENDBRANCH  19  20
ENDBRANCH  12  19
TORSDOF 4
ENDMDL
MODEL 7
REMARK VINA RESULT:      -6.0     21.210     22.780
REMARK  Name = 
REMARK  4 active torsions:
REMARK  status: ('A' for Active; 'I' for Inactive)
REMARK    1  A    between atoms: C_2  and  O_3
REMARK    2  A    between atoms: O_3  and  C_4
REMARK    3  A    between atoms: C_15  and  O_16
REMARK    4  A    between atoms: O_16  and  C_17
REMARK                            x       y       z     vdW  Elec       q    Type
REMARK                         _______ _______ _______ _____ _____    ______ ____
ROOT
ATOM      1  C   UNL     1      18.752  -7.081  26.563  0.00  0.00    +0.000 A 
ATOM      2  C   UNL     1      19.272  -5.883  26.123  0.00  0.00    +0.000 A 
ATOM      3  C   UNL     1      20.519  -5.827  25.529  0.00  0.00    +0.000 A 
ATOM      4  C   UNL     1      21.294  -6.955  25.349  0.00  0.00    +0.000 A 
ATOM      5  C   UNL     1      20.780  -8.154  25.786  0.00  0.00    +0.000 A 
ATOM      6  C   UNL     1      19.527  -8.208  26.383  0.00  0.00    +0.000 A 
ATOM      7  C   UNL     1      21.787  -9.150  25.476  0.00  0.00    +0.000 C 
ATOM      8  N   UNL     1      21.689 -10.401  25.726  0.00  0.00    +0.000 NA
ATOM      9  N   UNL     1      20.577 -10.980  26.343  0.00  0.00    +0.000 NA
ATOM     10  C   UNL     1      22.916  -8.498  24.839  0.00  0.00    +0.000 A 
ATOM     11  C   UNL     1      24.131  -8.892  24.333  0.00  0.00    +0.000 A 
ATOM     12  C   UNL     1      25.047  -8.034  23.763  0.00  0.00    +0.000 A 
ATOM     13  C   UNL     1      24.717  -6.706  23.701  0.00  0.00    +0.000 A 
ATOM     14  C   UNL     1      23.527  -6.252  24.185  0.00  0.00    +0.000 A 
ATOM     15  C   UNL     1      22.636  -7.141  24.749  0.00  0.00    +0.000 A 
ENDROOT
BRANCH   1  16
ATOM     16  O   UNL     1      17.495  -7.139  27.162  0.00  0.00    +0.000 OA
BRANCH  16  18
ATOM     17  C   UNL     1      15.885  -8.131  25.633  0.00  0.00    +0.000 C 
ATOM     18  C   UNL     1      16.628  -8.215  26.924  0.00  0.00    +0.000 C 
ENDBRANCH  16  18
ENDBRANCH   1  16
BRANCH  12  19
ATOM     19  O   UNL     1      26.241  -8.544  23.285  0.00  0.00    +0.000 OA
BRANCH  19  20
ATOM     20  C   UNL     1      26.763  -9.723  23.859  0.00  0.00    +0.000 C 
ATOM     21  C   UNL     1      28.269  -9.608  23.860  0.00  0.00    +0.000 C 
ENDBRANCH  19  20
ENDBRANCH  12  19
TORSDOF 4
ENDMDL
MODEL 8
REMARK VINA RESULT:      -5.9     28.419     31.654
REMARK  Name = 
REMARK  4 active torsions:
REMARK  status: ('A' for Active; 'I' for Inactive)
REMARK    1  A    between atoms: C_2  and  O_3
REMARK    2  A    between atoms: O_3  and  C_4
REMARK    3  A    between atoms: C_15  and  O_16
REMARK    4  A    between atoms: O_16  and  C_17
REMARK                            x       y       z     vdW  Elec       q    Type
REMARK                         _______ _______ _______ _____ _____    ______ ____
ROOT
ATOM      1  C   UNL     1      29.495  21.992  11.442  0.00  0.00    +0.000 A 
ATOM      2  C   UNL     1      30.186  21.948  12.634  0.00  0.00    +0.000 A 
ATOM      3  C   UNL     1      31.481  21.465  12.686  0.00  0.00    +0.000 A 
ATOM      4  C   UNL     1      32.136  21.010  11.559  0.00  0.00    +0.000 A 
ATOM      5  C   UNL     1      31.451  21.051  10.366  0.00  0.00    +0.000 A 
ATOM      6  C   UNL     1      30.150  21.537  10.317  0.00  0.00    +0.000 A 
ATOM      7  C   UNL     1      32.363  20.522   9.371  0.00  0.00    +0.000 C 
ATOM      8  N   UNL     1      32.100  20.394   8.125  0.00  0.00    +0.000 NA
ATOM      9  N   UNL     1      30.878  20.753   7.552  0.00  0.00    +0.000 NA
ATOM     10  C   UNL     1      33.612  20.165  10.016  0.00  0.00    +0.000 A 
ATOM     11  C   UNL     1      34.815  19.635   9.620  0.00  0.00    +0.000 A 
ATOM     12  C   UNL     1      35.872  19.390  10.470  0.00  0.00    +0.000 A 
ATOM     13  C   UNL     1      35.702  19.697  11.795  0.00  0.00    +0.000 A 
ATOM     14  C   UNL     1      34.532  20.226  12.251  0.00  0.00    +0.000 A 
ATOM     15  C   UNL     1      33.497  20.458  11.369  0.00  0.00    +0.000 A 
ENDROOT
BRANCH   1  16
ATOM     16  O   UNL     1      28.190  22.479  11.389  0.00  0.00    +0.000 OA
BRANCH  16  18
ATOM     17  C   UNL     1      26.641  23.138  13.145  0.00  0.00    +0.000 C 
ATOM     18  C   UNL     1      27.767  23.511  12.240  0.00  0.00    +0.000 C 
ENDBRANCH  16  18
ENDBRANCH   1  16
BRANCH  12  19
ATOM     19  O   UNL     1      37.040  18.853   9.959  0.00  0.00    +0.000 OA
BRANCH  19  20
ATOM     20  C   UNL     1      37.380  19.108   8.613  0.00  0.00    +0.000 C 
ATOM     21  C   UNL     1      37.860  17.811   8.005  0.00  0.00    +0.000 C 
ENDBRANCH  19  20
ENDBRANCH  12  19
TORSDOF 4
ENDMDL
MODEL 9
REMARK VINA RESULT:      -5.9     20.538     22.261
REMARK  Name = 
REMARK  4 active torsions:
REMARK  status: ('A' for Active; 'I' for Inactive)
REMARK    1  A    between atoms: C_2  and  O_3
REMARK    2  A    between atoms: O_3  and  C_4
REMARK    3  A    between atoms: C_15  and  O_16
REMARK    4  A    between atoms: O_16  and  C_17
REMARK                            x       y       z     vdW  Elec       q    Type
REMARK                         _______ _______ _______ _____ _____    ______ ____
ROOT
ATOM      1  C   UNL     1      21.653  -7.255  24.992  0.00  0.00    +0.000 A 
ATOM      2  C   UNL     1      22.148  -8.512  25.264  0.00  0.00    +0.000 A 
ATOM      3  C   UNL     1      21.492  -9.360  26.136  0.00  0.00    +0.000 A 
ATOM      4  C   UNL     1      20.322  -8.993  26.770  0.00  0.00    +0.000 A 
ATOM      5  C   UNL     1      19.822  -7.739  26.503  0.00  0.00    +0.000 A 
ATOM      6  C   UNL     1      20.483  -6.890  25.626  0.00  0.00    +0.000 A 
ATOM      7  C   UNL     1      18.610  -7.624  27.290  0.00  0.00    +0.000 C 
ATOM      8  N   UNL     1      17.845  -6.599  27.319  0.00  0.00    +0.000 NA
ATOM      9  N   UNL     1      18.083  -5.436  26.583  0.00  0.00    +0.000 NA
ATOM     10  C   UNL     1      18.409  -8.854  28.033  0.00  0.00    +0.000 A 
ATOM     11  C   UNL     1      17.476  -9.335  28.918  0.00  0.00    +0.000 A 
ATOM     12  C   UNL     1      17.529 -10.586  29.495  0.00  0.00    +0.000 A 
ATOM     13  C   UNL     1      18.582 -11.394  29.159  0.00  0.00    +0.000 A 
ATOM     14  C   UNL     1      19.541 -10.975  28.286  0.00  0.00    +0.000 A 
ATOM     15  C   UNL     1      19.454  -9.717  27.729  0.00  0.00    +0.000 A 
ENDROOT
BRANCH   1  16
ATOM     16  O   UNL     1      22.313  -6.400  24.112  0.00  0.00    +0.000 OA
BRANCH  16  18
ATOM     17  C   UNL     1      24.727  -6.547  23.848  0.00  0.00    +0.000 C 
ATOM     18  C   UNL     1      23.369  -6.859  23.312  0.00  0.00    +0.000 C 
ENDBRANCH  16  18
ENDBRANCH   1  16
BRANCH  12  19
ATOM     19  O   UNL     1      16.530 -10.966  30.375  0.00  0.00    +0.000 OA
BRANCH  19  20
ATOM     20  C   UNL     1      16.458 -10.344  31.640  0.00  0.00    +0.000 C 
ATOM     21  C   UNL     1      17.278 -11.167  32.606  0.00  0.00    +0.000 C 
ENDBRANCH  19  20
ENDBRANCH  12  19
TORSDOF 4
ENDMDL
MODEL 10
REMARK VINA RESULT:      -5.7     20.857     21.946
REMARK  Name = 
REMARK  4 active torsions:
REMARK  status: ('A' for Active; 'I' for Inactive)
REMARK    1  A    between atoms: C_2  and  O_3
REMARK    2  A    between atoms: O_3  and  C_4
REMARK    3  A    between atoms: C_15  and  O_16
REMARK    4  A    between atoms: O_16  and  C_17
REMARK                            x       y       z     vdW  Elec       q    Type
REMARK                         _______ _______ _______ _____ _____    ______ ____
ROOT
ATOM      1  C   UNL     1      17.942  -9.835  29.341  0.00  0.00    +0.000 A 
ATOM      2  C   UNL     1      19.007 -10.703  29.237  0.00  0.00    +0.000 A 
ATOM      3  C   UNL     1      20.021 -10.476  28.325  0.00  0.00    +0.000 A 
ATOM      4  C   UNL     1      20.016  -9.381  27.486  0.00  0.00    +0.000 A 
ATOM      5  C   UNL     1      18.956  -8.510  27.584  0.00  0.00    +0.000 A 
ATOM      6  C   UNL     1      17.938  -8.741  28.501  0.00  0.00    +0.000 A 
ATOM      7  C   UNL     1      19.207  -7.472  26.603  0.00  0.00    +0.000 C 
ATOM      8  N   UNL     1      18.446  -6.467  26.382  0.00  0.00    +0.000 NA
ATOM      9  N   UNL     1      17.253  -6.236  27.070  0.00  0.00    +0.000 NA
ATOM     10  C   UNL     1      20.453  -7.759  25.919  0.00  0.00    +0.000 A 
ATOM     11  C   UNL     1      21.197  -7.170  24.926  0.00  0.00    +0.000 A 
ATOM     12  C   UNL     1      22.388  -7.672  24.448  0.00  0.00    +0.000 A 
ATOM     13  C   UNL     1      22.853  -8.834  25.005  0.00  0.00    +0.000 A 
ATOM     14  C   UNL     1      22.162  -9.468  25.995  0.00  0.00    +0.000 A 
ATOM     15  C   UNL     1      20.974  -8.934  26.447  0.00  0.00    +0.000 A 
ENDROOT
BRANCH   1  16
ATOM     16  O   UNL     1      16.919 -10.063  30.260  0.00  0.00    +0.000 OA
BRANCH  16  18
ATOM     17  C   UNL     1      15.359 -11.550  29.132  0.00  0.00    +0.000 C 
ATOM     18  C   UNL     1      16.247 -11.293  30.304  0.00  0.00    +0.000 C 
ENDBRANCH  16  18
ENDBRANCH   1  16
BRANCH  12  19
ATOM     19  O   UNL     1      23.052  -6.992  23.443  0.00  0.00    +0.000 OA
BRANCH  19  20
ATOM     20  C   UNL     1      23.590  -7.721  22.361  0.00  0.00    +0.000 C 
ATOM     21  C   UNL     1      22.504  -7.872  21.322  0.00  0.00    +0.000 C 
ENDBRANCH  19  20
ENDBRANCH  12  19
TORSDOF 4
ENDMDL
