MODEL 1
REMARK VINA RESULT:      -8.4      0.000      0.000
REMARK  Name = 
REMARK  8 active torsions:
REMARK  status: ('A' for Active; 'I' for Inactive)
REMARK    1  A    between atoms: C_5  and  C_6
REMARK    2  A    between atoms: C_9  and  S_10
REMARK    3  A    between atoms: S_10  and  C_11
REMARK    4  A    between atoms: C_11  and  C_12
REMARK    5  A    between atoms: C_16  and  C_17
REMARK    6  A    between atoms: N_19  and  C_20
REMARK    7  A    between atoms: C_20  and  C_21
REMARK    8  A    between atoms: C_21  and  C_22
REMARK                            x       y       z     vdW  Elec       q    Type
REMARK                         _______ _______ _______ _____ _____    ______ ____
ROOT
ATOM      1  C   UNL     1      40.489   1.000  13.389  0.00  0.00    +0.000 C 
ENDROOT
BRANCH   1   2
ATOM      2  C   UNL     1      40.492  -0.326  14.056  0.00  0.00    +0.000 A 
ATOM      3  C   UNL     1      41.439  -1.250  13.637  0.00  0.00    +0.000 A 
ATOM      4  C   UNL     1      41.459  -2.491  14.238  0.00  0.00    +0.000 A 
ATOM      5  C   UNL     1      40.539  -2.791  15.239  0.00  0.00    +0.000 A 
ATOM      6  C   UNL     1      39.598  -1.876  15.656  0.00  0.00    +0.000 A 
ATOM      7  C   UNL     1      39.571  -0.631  15.061  0.00  0.00    +0.000 A 
BRANCH   6   8
ATOM      8  C   UNL     1      38.646  -2.220  16.708  0.00  0.00    +0.000 C 
ATOM      9  O   UNL     1      38.475  -3.443  17.002  0.00  0.00    +0.000 OA
ATOM     10  N   UNL     1      37.900  -1.270  17.422  0.00  0.00    +0.000 NA
BRANCH  10  11
ATOM     11  C   UNL     1      36.945  -1.616  18.479  0.00  0.00    +0.000 C 
BRANCH  11  12
ATOM     12  C   UNL     1      36.200  -0.336  18.807  0.00  0.00    +0.000 C 
BRANCH  12  13
ATOM     13  C   UNL     1      34.976  -0.221  17.926  0.00  0.00    +0.000 C 
ATOM     14  C   UNL     1      35.103   0.833  16.866  0.00  0.00    +0.000 C 
ATOM     15  C   UNL     1      34.555  -1.570  17.370  0.00  0.00    +0.000 C 
ENDBRANCH  12  13
ENDBRANCH  11  12
ENDBRANCH  10  11
ENDBRANCH   6   8
ENDBRANCH   1   2
BRANCH   1  16
ATOM     16  S   UNL     1      38.855   1.788  13.522  0.00  0.00    +0.000 S 
BRANCH  16  20
ATOM     17  C   UNL     1      38.846   4.941  16.811  0.00  0.00    +0.000 A 
ATOM     18  C   UNL     1      39.613   5.101  15.682  0.00  0.00    +0.000 A 
ATOM     19  C   UNL     1      39.628   4.165  14.683  0.00  0.00    +0.000 A 
ATOM     20  C   UNL     1      38.857   3.030  14.809  0.00  0.00    +0.000 A 
ATOM     21  N   UNL     1      38.124   2.910  15.924  0.00  0.00    +0.000 NA
ATOM     22  N   UNL     1      38.110   3.820  16.893  0.00  0.00    +0.000 NA
BRANCH  17  27
ATOM     23  C   UNL     1      38.761   8.904  21.011  0.00  0.00    +0.000 C 
ATOM     24  C   UNL     1      38.800   7.870  19.940  0.00  0.00    +0.000 A 
ATOM     25  C   UNL     1      37.943   7.945  18.862  0.00  0.00    +0.000 A 
ATOM     26  C   UNL     1      37.946   7.001  17.837  0.00  0.00    +0.000 A 
ATOM     27  C   UNL     1      38.830   5.944  17.881  0.00  0.00    +0.000 A 
ATOM     28  C   UNL     1      39.683   5.873  18.957  0.00  0.00    +0.000 A 
ATOM     29  C   UNL     1      39.689   6.807  19.984  0.00  0.00    +0.000 A 
ENDBRANCH  17  27
ENDBRANCH  16  20
ENDBRANCH   1  16
TORSDOF 8
ENDMDL
MODEL 2
REMARK VINA RESULT:      -8.0      1.667      4.486
REMARK  Name = 
REMARK  8 active torsions:
REMARK  status: ('A' for Active; 'I' for Inactive)
REMARK    1  A    between atoms: C_5  and  C_6
REMARK    2  A    between atoms: C_9  and  S_10
REMARK    3  A    between atoms: S_10  and  C_11
REMARK    4  A    between atoms: C_11  and  C_12
REMARK    5  A    between atoms: C_16  and  C_17
REMARK    6  A    between atoms: N_19  and  C_20
REMARK    7  A    between atoms: C_20  and  C_21
REMARK    8  A    between atoms: C_21  and  C_22
REMARK                            x       y       z     vdW  Elec       q    Type
REMARK                         _______ _______ _______ _____ _____    ______ ____
ROOT
ATOM      1  C   UNL     1      35.577   0.681  15.827  0.00  0.00    +0.000 C 
ENDROOT
BRANCH   1   2
ATOM      2  C   UNL     1      36.506  -0.263  16.496  0.00  0.00    +0.000 A 
ATOM      3  C   UNL     1      36.285  -0.532  17.840  0.00  0.00    +0.000 A 
ATOM      4  C   UNL     1      37.137  -1.403  18.485  0.00  0.00    +0.000 A 
ATOM      5  C   UNL     1      38.190  -1.987  17.787  0.00  0.00    +0.000 A 
ATOM      6  C   UNL     1      38.411  -1.721  16.454  0.00  0.00    +0.000 A 
ATOM      7  C   UNL     1      37.563  -0.852  15.800  0.00  0.00    +0.000 A 
BRANCH   6   8
ATOM      8  C   UNL     1      39.525  -2.349  15.749  0.00  0.00    +0.000 C 
ATOM      9  O   UNL     1      40.008  -3.430  16.208  0.00  0.00    +0.000 OA
ATOM     10  N   UNL     1      40.100  -1.825  14.582  0.00  0.00    +0.000 NA
BRANCH  10  11
ATOM     11  C   UNL     1      41.218  -2.456  13.873  0.00  0.00    +0.000 C 
BRANCH  11  12
ATOM     12  C   UNL     1      42.481  -1.901  14.504  0.00  0.00    +0.000 C 
BRANCH  12  13
ATOM     13  C   UNL     1      42.762  -0.523  13.947  0.00  0.00    +0.000 C 
ATOM     14  C   UNL     1      44.072   0.048  14.406  0.00  0.00    +0.000 C 
ATOM     15  C   UNL     1      42.596  -0.482  12.438  0.00  0.00    +0.000 C 
ENDBRANCH  12  13
ENDBRANCH  11  12
ENDBRANCH  10  11
ENDBRANCH   6   8
ENDBRANCH   1   2
BRANCH   1  16
ATOM     16  S   UNL     1      36.484   1.814  14.731  0.00  0.00    +0.000 S 
BRANCH  16  20
ATOM     17  C   UNL     1      38.980   4.735  17.178  0.00  0.00    +0.000 A 
ATOM     18  C   UNL     1      39.137   4.642  15.817  0.00  0.00    +0.000 A 
ATOM     19  C   UNL     1      38.397   3.771  15.065  0.00  0.00    +0.000 A 
ATOM     20  C   UNL     1      37.468   2.963  15.685  0.00  0.00    +0.000 A 
ATOM     21  N   UNL     1      37.345   3.083  17.013  0.00  0.00    +0.000 NA
ATOM     22  N   UNL     1      38.065   3.930  17.742  0.00  0.00    +0.000 NA
BRANCH  17  27
ATOM     23  C   UNL     1      42.091   8.408  20.371  0.00  0.00    +0.000 C 
ATOM     24  C   UNL     1      41.305   7.462  19.530  0.00  0.00    +0.000 A 
ATOM     25  C   UNL     1      40.129   6.917  20.001  0.00  0.00    +0.000 A 
ATOM     26  C   UNL     1      39.363   6.029  19.249  0.00  0.00    +0.000 A 
ATOM     27  C   UNL     1      39.775   5.669  17.984  0.00  0.00    +0.000 A 
ATOM     28  C   UNL     1      40.948   6.214  17.518  0.00  0.00    +0.000 A 
ATOM     29  C   UNL     1      41.720   7.099  18.258  0.00  0.00    +0.000 A 
ENDBRANCH  17  27
ENDBRANCH  16  20
ENDBRANCH   1  16
TORSDOF 8
ENDMDL
MODEL 3
REMARK VINA RESULT:      -7.9      1.799      3.737
REMARK  Name = 
REMARK  8 active torsions:
REMARK  status: ('A' for Active; 'I' for Inactive)
REMARK    1  A    between atoms: C_5  and  C_6
REMARK    2  A    between atoms: C_9  and  S_10
REMARK    3  A    between atoms: S_10  and  C_11
REMARK    4  A    between atoms: C_11  and  C_12
REMARK    5  A    between atoms: C_16  and  C_17
REMARK    6  A    between atoms: N_19  and  C_20
REMARK    7  A    between atoms: C_20  and  C_21
REMARK    8  A    between atoms: C_21  and  C_22
REMARK                            x       y       z     vdW  Elec       q    Type
REMARK                         _______ _______ _______ _____ _____    ______ ____
ROOT
ATOM      1  C   UNL     1      37.045   1.885  13.135  0.00  0.00    +0.000 C 
ENDROOT
BRANCH   1   2
ATOM      2  C   UNL     1      36.235   1.738  14.369  0.00  0.00    +0.000 A 
ATOM      3  C   UNL     1      35.330   2.748  14.664  0.00  0.00    +0.000 A 
ATOM      4  C   UNL     1      34.569   2.637  15.808  0.00  0.00    +0.000 A 
ATOM      5  C   UNL     1      34.721   1.529  16.637  0.00  0.00    +0.000 A 
ATOM      6  C   UNL     1      35.618   0.525  16.346  0.00  0.00    +0.000 A 
ATOM      7  C   UNL     1      36.383   0.627  15.203  0.00  0.00    +0.000 A 
BRANCH   6   8
ATOM      8  C   UNL     1      35.755  -0.625  17.236  0.00  0.00    +0.000 C 
ATOM      9  O   UNL     1      34.767  -0.963  17.956  0.00  0.00    +0.000 OA
ATOM     10  N   UNL     1      36.928  -1.388  17.343  0.00  0.00    +0.000 NA
BRANCH  10  11
ATOM     11  C   UNL     1      37.065  -2.543  18.235  0.00  0.00    +0.000 C 
BRANCH  11  12
ATOM     12  C   UNL     1      38.555  -2.794  18.371  0.00  0.00    +0.000 C 
BRANCH  12  13
ATOM     13  C   UNL     1      39.004  -3.770  17.307  0.00  0.00    +0.000 C 
ATOM     14  C   UNL     1      37.969  -4.804  16.973  0.00  0.00    +0.000 C 
ATOM     15  C   UNL     1      39.543  -3.055  16.080  0.00  0.00    +0.000 C 
ENDBRANCH  12  13
ENDBRANCH  11  12
ENDBRANCH  10  11
ENDBRANCH   6   8
ENDBRANCH   1   2
BRANCH   1  16
ATOM     16  S   UNL     1      38.735   2.430  13.530  0.00  0.00    +0.000 S 
BRANCH  16  20
ATOM     17  C   UNL     1      38.679   5.533  16.865  0.00  0.00    +0.000 A 
ATOM     18  C   UNL     1      38.813   5.912  15.551  0.00  0.00    +0.000 A 
ATOM     19  C   UNL     1      38.832   4.994  14.536  0.00  0.00    +0.000 A 
ATOM     20  C   UNL     1      38.714   3.654  14.834  0.00  0.00    +0.000 A 
ATOM     21  N   UNL     1      38.586   3.325  16.126  0.00  0.00    +0.000 NA
ATOM     22  N   UNL     1      38.568   4.217  17.111  0.00  0.00    +0.000 NA
BRANCH  17  27
ATOM     23  C   UNL     1      38.584   9.422  21.134  0.00  0.00    +0.000 C 
ATOM     24  C   UNL     1      38.623   8.405  20.046  0.00  0.00    +0.000 A 
ATOM     25  C   UNL     1      37.928   8.608  18.872  0.00  0.00    +0.000 A 
ATOM     26  C   UNL     1      37.936   7.683  17.830  0.00  0.00    +0.000 A 
ATOM     27  C   UNL     1      38.660   6.517  17.953  0.00  0.00    +0.000 A 
ATOM     28  C   UNL     1      39.352   6.319  19.125  0.00  0.00    +0.000 A 
ATOM     29  C   UNL     1      39.350   7.232  20.170  0.00  0.00    +0.000 A 
ENDBRANCH  17  27
ENDBRANCH  16  20
ENDBRANCH   1  16
TORSDOF 8
ENDMDL
MODEL 4
REMARK VINA RESULT:      -7.5      4.148      7.562
REMARK  Name = 
REMARK  8 active torsions:
REMARK  status: ('A' for Active; 'I' for Inactive)
REMARK    1  A    between atoms: C_5  and  C_6
REMARK    2  A    between atoms: C_9  and  S_10
REMARK    3  A    between atoms: S_10  and  C_11
REMARK    4  A    between atoms: C_11  and  C_12
REMARK    5  A    between atoms: C_16  and  C_17
REMARK    6  A    between atoms: N_19  and  C_20
REMARK    7  A    between atoms: C_20  and  C_21
REMARK    8  A    between atoms: C_21  and  C_22
REMARK                            x       y       z     vdW  Elec       q    Type
REMARK                         _______ _______ _______ _____ _____    ______ ____
ROOT
ATOM      1  C   UNL     1      38.274   3.343  11.688  0.00  0.00    +0.000 C 
ENDROOT
BRANCH   1   2
ATOM      2  C   UNL     1      37.193   3.885  12.549  0.00  0.00    +0.000 A 
ATOM      3  C   UNL     1      36.813   5.204  12.344  0.00  0.00    +0.000 A 
ATOM      4  C   UNL     1      35.814   5.731  13.134  0.00  0.00    +0.000 A 
ATOM      5  C   UNL     1      35.213   4.942  14.111  0.00  0.00    +0.000 A 
ATOM      6  C   UNL     1      35.588   3.633  14.316  0.00  0.00    +0.000 A 
ATOM      7  C   UNL     1      36.587   3.096  13.529  0.00  0.00    +0.000 A 
BRANCH   6   8
ATOM      8  C   UNL     1      34.940   2.830  15.349  0.00  0.00    +0.000 C 
ATOM      9  O   UNL     1      33.817   3.209  15.803  0.00  0.00    +0.000 OA
ATOM     10  N   UNL     1      35.489   1.651  15.875  0.00  0.00    +0.000 NA
BRANCH  10  11
ATOM     11  C   UNL     1      34.837   0.845  16.911  0.00  0.00    +0.000 C 
BRANCH  11  12
ATOM     12  C   UNL     1      35.575  -0.480  16.938  0.00  0.00    +0.000 C 
BRANCH  12  13
ATOM     13  C   UNL     1      36.516  -0.513  18.122  0.00  0.00    +0.000 C 
ATOM     14  C   UNL     1      36.162   0.481  19.190  0.00  0.00    +0.000 C 
ATOM     15  C   UNL     1      36.693  -1.921  18.661  0.00  0.00    +0.000 C 
ENDBRANCH  12  13
ENDBRANCH  11  12
ENDBRANCH  10  11
ENDBRANCH   6   8
ENDBRANCH   1   2
BRANCH   1  16
ATOM     16  S   UNL     1      39.675   2.767  12.695  0.00  0.00    +0.000 S 
BRANCH  16  20
ATOM     17  C   UNL     1      38.698  -1.205  14.700  0.00  0.00    +0.000 A 
ATOM     18  C   UNL     1      38.766  -1.104  13.331  0.00  0.00    +0.000 A 
ATOM     19  C   UNL     1      39.058   0.080  12.711  0.00  0.00    +0.000 A 
ATOM     20  C   UNL     1      39.291   1.204  13.475  0.00  0.00    +0.000 A 
ATOM     21  N   UNL     1      39.214   1.065  14.805  0.00  0.00    +0.000 NA
ATOM     22  N   UNL     1      38.930  -0.087  15.406  0.00  0.00    +0.000 NA
BRANCH  17  27
ATOM     23  C   UNL     1      37.440  -6.208  17.298  0.00  0.00    +0.000 C 
ATOM     24  C   UNL     1      37.784  -4.917  16.640  0.00  0.00    +0.000 A 
ATOM     25  C   UNL     1      36.933  -4.353  15.714  0.00  0.00    +0.000 A 
ATOM     26  C   UNL     1      37.215  -3.147  15.075  0.00  0.00    +0.000 A 
ATOM     27  C   UNL     1      38.384  -2.475  15.364  0.00  0.00    +0.000 A 
ATOM     28  C   UNL     1      39.231  -3.042  16.287  0.00  0.00    +0.000 A 
ATOM     29  C   UNL     1      38.960  -4.242  16.930  0.00  0.00    +0.000 A 
ENDBRANCH  17  27
ENDBRANCH  16  20
ENDBRANCH   1  16
TORSDOF 8
ENDMDL
MODEL 5
REMARK VINA RESULT:      -7.5      2.800      4.497
REMARK  Name = 
REMARK  8 active torsions:
REMARK  status: ('A' for Active; 'I' for Inactive)
REMARK    1  A    between atoms: C_5  and  C_6
REMARK    2  A    between atoms: C_9  and  S_10
REMARK    3  A    between atoms: S_10  and  C_11
REMARK    4  A    between atoms: C_11  and  C_12
REMARK    5  A    between atoms: C_16  and  C_17
REMARK    6  A    between atoms: N_19  and  C_20
REMARK    7  A    between atoms: C_20  and  C_21
REMARK    8  A    between atoms: C_21  and  C_22
REMARK                            x       y       z     vdW  Elec       q    Type
REMARK                         _______ _______ _______ _____ _____    ______ ____
ROOT
ATOM      1  C   UNL     1      36.378   4.154  13.152  0.00  0.00    +0.000 C 
ENDROOT
BRANCH   1   2
ATOM      2  C   UNL     1      35.996   3.166  14.191  0.00  0.00    +0.000 A 
ATOM      3  C   UNL     1      34.951   3.502  15.040  0.00  0.00    +0.000 A 
ATOM      4  C   UNL     1      34.581   2.601  16.016  0.00  0.00    +0.000 A 
ATOM      5  C   UNL     1      35.254   1.389  16.132  0.00  0.00    +0.000 A 
ATOM      6  C   UNL     1      36.292   1.053  15.291  0.00  0.00    +0.000 A 
ATOM      7  C   UNL     1      36.668   1.947  14.310  0.00  0.00    +0.000 A 
BRANCH   6   8
ATOM      8  C   UNL     1      36.979  -0.227  15.438  0.00  0.00    +0.000 C 
ATOM      9  O   UNL     1      37.379  -0.578  16.590  0.00  0.00    +0.000 OA
ATOM     10  N   UNL     1      37.226  -1.102  14.370  0.00  0.00    +0.000 NA
BRANCH  10  11
ATOM     11  C   UNL     1      37.916  -2.388  14.518  0.00  0.00    +0.000 C 
BRANCH  11  12
ATOM     12  C   UNL     1      36.946  -3.443  14.021  0.00  0.00    +0.000 C 
BRANCH  12  13
ATOM     13  C   UNL     1      35.986  -3.812  15.131  0.00  0.00    +0.000 C 
ATOM     14  C   UNL     1      34.669  -4.330  14.630  0.00  0.00    +0.000 C 
ATOM     15  C   UNL     1      36.633  -4.732  16.151  0.00  0.00    +0.000 C 
ENDBRANCH  12  13
ENDBRANCH  11  12
ENDBRANCH  10  11
ENDBRANCH   6   8
ENDBRANCH   1   2
BRANCH   1  16
ATOM     16  S   UNL     1      36.412   5.837  13.841  0.00  0.00    +0.000 S 
BRANCH  16  20
ATOM     17  C   UNL     1      39.575   6.194  17.100  0.00  0.00    +0.000 A 
ATOM     18  C   UNL     1      39.495   5.070  16.315  0.00  0.00    +0.000 A 
ATOM     19  C   UNL     1      38.552   4.944  15.332  0.00  0.00    +0.000 A 
ATOM     20  C   UNL     1      37.657   5.970  15.119  0.00  0.00    +0.000 A 
ATOM     21  N   UNL     1      37.766   7.049  15.904  0.00  0.00    +0.000 NA
ATOM     22  N   UNL     1      38.683   7.169  16.860  0.00  0.00    +0.000 NA
BRANCH  17  27
ATOM     23  C   UNL     1      43.536   6.714  21.272  0.00  0.00    +0.000 C 
ATOM     24  C   UNL     1      42.531   6.583  20.180  0.00  0.00    +0.000 A 
ATOM     25  C   UNL     1      41.200   6.373  20.473  0.00  0.00    +0.000 A 
ATOM     26  C   UNL     1      40.228   6.244  19.484  0.00  0.00    +0.000 A 
ATOM     27  C   UNL     1      40.586   6.328  18.155  0.00  0.00    +0.000 A 
ATOM     28  C   UNL     1      41.914   6.537  17.867  0.00  0.00    +0.000 A 
ATOM     29  C   UNL     1      42.891   6.667  18.844  0.00  0.00    +0.000 A 
ENDBRANCH  17  27
ENDBRANCH  16  20
ENDBRANCH   1  16
TORSDOF 8
ENDMDL
MODEL 6
REMARK VINA RESULT:      -7.4      2.610      3.443
REMARK  Name = 
REMARK  8 active torsions:
REMARK  status: ('A' for Active; 'I' for Inactive)
REMARK    1  A    between atoms: C_5  and  C_6
REMARK    2  A    between atoms: C_9  and  S_10
REMARK    3  A    between atoms: S_10  and  C_11
REMARK    4  A    between atoms: C_11  and  C_12
REMARK    5  A    between atoms: C_16  and  C_17
REMARK    6  A    between atoms: N_19  and  C_20
REMARK    7  A    between atoms: C_20  and  C_21
REMARK    8  A    between atoms: C_21  and  C_22
REMARK                            x       y       z     vdW  Elec       q    Type
REMARK                         _______ _______ _______ _____ _____    ______ ____
ROOT
ATOM      1  C   UNL     1      37.102   4.179  12.162  0.00  0.00    +0.000 C 
ENDROOT
BRANCH   1   2
ATOM      2  C   UNL     1      37.415   2.729  12.172  0.00  0.00    +0.000 A 
ATOM      3  C   UNL     1      37.804   2.150  10.972  0.00  0.00    +0.000 A 
ATOM      4  C   UNL     1      38.096   0.803  10.955  0.00  0.00    +0.000 A 
ATOM      5  C   UNL     1      37.997   0.057  12.126  0.00  0.00    +0.000 A 
ATOM      6  C   UNL     1      37.611   0.629  13.318  0.00  0.00    +0.000 A 
ATOM      7  C   UNL     1      37.318   1.977  13.345  0.00  0.00    +0.000 A 
BRANCH   6   8
ATOM      8  C   UNL     1      37.515  -0.180  14.530  0.00  0.00    +0.000 C 
ATOM      9  O   UNL     1      38.436  -0.093  15.399  0.00  0.00    +0.000 OA
ATOM     10  N   UNL     1      36.454  -1.059  14.794  0.00  0.00    +0.000 NA
BRANCH  10  11
ATOM     11  C   UNL     1      36.357  -1.870  16.011  0.00  0.00    +0.000 C 
BRANCH  11  12
ATOM     12  C   UNL     1      35.199  -1.298  16.806  0.00  0.00    +0.000 C 
BRANCH  12  13
ATOM     13  C   UNL     1      35.639  -0.030  17.503  0.00  0.00    +0.000 C 
ATOM     14  C   UNL     1      34.916   1.195  17.021  0.00  0.00    +0.000 C 
ATOM     15  C   UNL     1      35.608  -0.178  19.014  0.00  0.00    +0.000 C 
ENDBRANCH  12  13
ENDBRANCH  11  12
ENDBRANCH  10  11
ENDBRANCH   6   8
ENDBRANCH   1   2
BRANCH   1  16
ATOM     16  S   UNL     1      36.249   4.668  13.692  0.00  0.00    +0.000 S 
BRANCH  16  20
ATOM     17  C   UNL     1      39.267   5.697  16.945  0.00  0.00    +0.000 A 
ATOM     18  C   UNL     1      38.428   4.618  17.078  0.00  0.00    +0.000 A 
ATOM     19  C   UNL     1      37.515   4.293  16.112  0.00  0.00    +0.000 A 
ATOM     20  C   UNL     1      37.431   5.066  14.974  0.00  0.00    +0.000 A 
ATOM     21  N   UNL     1      38.266   6.109  14.881  0.00  0.00    +0.000 NA
ATOM     22  N   UNL     1      39.152   6.424  15.821  0.00  0.00    +0.000 NA
BRANCH  17  27
ATOM     23  C   UNL     1      43.137   7.073  21.007  0.00  0.00    +0.000 C 
ATOM     24  C   UNL     1      42.123   6.716  19.976  0.00  0.00    +0.000 A 
ATOM     25  C   UNL     1      42.462   6.681  18.640  0.00  0.00    +0.000 A 
ATOM     26  C   UNL     1      41.546   6.353  17.644  0.00  0.00    +0.000 A 
ATOM     27  C   UNL     1      40.246   6.045  17.982  0.00  0.00    +0.000 A 
ATOM     28  C   UNL     1      39.910   6.081  19.315  0.00  0.00    +0.000 A 
ATOM     29  C   UNL     1      40.815   6.408  20.316  0.00  0.00    +0.000 A 
ENDBRANCH  17  27
ENDBRANCH  16  20
ENDBRANCH   1  16
TORSDOF 8
ENDMDL
MODEL 7
REMARK VINA RESULT:      -7.3      3.989      9.560
REMARK  Name = 
REMARK  8 active torsions:
REMARK  status: ('A' for Active; 'I' for Inactive)
REMARK    1  A    between atoms: C_5  and  C_6
REMARK    2  A    between atoms: C_9  and  S_10
REMARK    3  A    between atoms: S_10  and  C_11
REMARK    4  A    between atoms: C_11  and  C_12
REMARK    5  A    between atoms: C_16  and  C_17
REMARK    6  A    between atoms: N_19  and  C_20
REMARK    7  A    between atoms: C_20  and  C_21
REMARK    8  A    between atoms: C_21  and  C_22
REMARK                            x       y       z     vdW  Elec       q    Type
REMARK                         _______ _______ _______ _____ _____    ______ ____
ROOT
ATOM      1  C   UNL     1      39.247   5.165  16.734  0.00  0.00    +0.000 C 
ENDROOT
BRANCH   1   2
ATOM      2  C   UNL     1      39.044   6.158  17.818  0.00  0.00    +0.000 A 
ATOM      3  C   UNL     1      39.731   5.956  19.007  0.00  0.00    +0.000 A 
ATOM      4  C   UNL     1      39.555   6.863  20.030  0.00  0.00    +0.000 A 
ATOM      5  C   UNL     1      38.702   7.948  19.856  0.00  0.00    +0.000 A 
ATOM      6  C   UNL     1      38.018   8.150  18.677  0.00  0.00    +0.000 A 
ATOM      7  C   UNL     1      38.189   7.249  17.647  0.00  0.00    +0.000 A 
BRANCH   6   8
ATOM      8  C   UNL     1      37.130   9.298  18.525  0.00  0.00    +0.000 C 
ATOM      9  O   UNL     1      37.311  10.315  19.263  0.00  0.00    +0.000 OA
ATOM     10  N   UNL     1      36.075   9.346  17.601  0.00  0.00    +0.000 NA
BRANCH  10  11
ATOM     11  C   UNL     1      35.183  10.500  17.448  0.00  0.00    +0.000 C 
BRANCH  11  12
ATOM     12  C   UNL     1      33.930   9.975  16.772  0.00  0.00    +0.000 C 
BRANCH  12  13
ATOM     13  C   UNL     1      34.276   9.462  15.391  0.00  0.00    +0.000 C 
ATOM     14  C   UNL     1      33.557   8.195  15.030  0.00  0.00    +0.000 C 
ATOM     15  C   UNL     1      34.129  10.545  14.337  0.00  0.00    +0.000 C 
ENDBRANCH  12  13
ENDBRANCH  11  12
ENDBRANCH  10  11
ENDBRANCH   6   8
ENDBRANCH   1   2
BRANCH   1  16
ATOM     16  S   UNL     1      37.695   4.858  15.837  0.00  0.00    +0.000 S 
BRANCH  16  20
ATOM     17  C   UNL     1      36.711   0.410  15.829  0.00  0.00    +0.000 A 
ATOM     18  C   UNL     1      35.778   1.338  16.225  0.00  0.00    +0.000 A 
ATOM     19  C   UNL     1      36.055   2.678  16.235  0.00  0.00    +0.000 A 
ATOM     20  C   UNL     1      37.301   3.113  15.837  0.00  0.00    +0.000 A 
ATOM     21  N   UNL     1      38.182   2.178  15.457  0.00  0.00    +0.000 NA
ATOM     22  N   UNL     1      37.911   0.877  15.449  0.00  0.00    +0.000 NA
BRANCH  17  27
ATOM     23  C   UNL     1      35.531  -5.244  15.819  0.00  0.00    +0.000 C 
ATOM     24  C   UNL     1      35.839  -3.787  15.798  0.00  0.00    +0.000 A 
ATOM     25  C   UNL     1      35.788  -3.043  16.958  0.00  0.00    +0.000 A 
ATOM     26  C   UNL     1      36.068  -1.678  16.984  0.00  0.00    +0.000 A 
ATOM     27  C   UNL     1      36.413  -1.027  15.819  0.00  0.00    +0.000 A 
ATOM     28  C   UNL     1      36.463  -1.772  14.665  0.00  0.00    +0.000 A 
ATOM     29  C   UNL     1      36.185  -3.132  14.627  0.00  0.00    +0.000 A 
ENDBRANCH  17  27
ENDBRANCH  16  20
ENDBRANCH   1  16
TORSDOF 8
ENDMDL
MODEL 8
REMARK VINA RESULT:      -7.3      2.825      4.716
REMARK  Name = 
REMARK  8 active torsions:
REMARK  status: ('A' for Active; 'I' for Inactive)
REMARK    1  A    between atoms: C_5  and  C_6
REMARK    2  A    between atoms: C_9  and  S_10
REMARK    3  A    between atoms: S_10  and  C_11
REMARK    4  A    between atoms: C_11  and  C_12
REMARK    5  A    between atoms: C_16  and  C_17
REMARK    6  A    between atoms: N_19  and  C_20
REMARK    7  A    between atoms: C_20  and  C_21
REMARK    8  A    between atoms: C_21  and  C_22
REMARK                            x       y       z     vdW  Elec       q    Type
REMARK                         _______ _______ _______ _____ _____    ______ ____
ROOT
ATOM      1  C   UNL     1      37.775   3.800  14.518  0.00  0.00    +0.000 C 
ENDROOT
BRANCH   1   2
ATOM      2  C   UNL     1      36.920   2.722  15.075  0.00  0.00    +0.000 A 
ATOM      3  C   UNL     1      35.766   3.103  15.745  0.00  0.00    +0.000 A 
ATOM      4  C   UNL     1      34.958   2.120  16.276  0.00  0.00    +0.000 A 
ATOM      5  C   UNL     1      35.310   0.782  16.134  0.00  0.00    +0.000 A 
ATOM      6  C   UNL     1      36.455   0.400  15.469  0.00  0.00    +0.000 A 
ATOM      7  C   UNL     1      37.269   1.377  14.934  0.00  0.00    +0.000 A 
BRANCH   6   8
ATOM      8  C   UNL     1      36.798  -1.012  15.337  0.00  0.00    +0.000 C 
ATOM      9  O   UNL     1      35.879  -1.879  15.452  0.00  0.00    +0.000 OA
ATOM     10  N   UNL     1      38.099  -1.475  15.086  0.00  0.00    +0.000 NA
BRANCH  10  11
ATOM     11  C   UNL     1      38.443  -2.894  14.952  0.00  0.00    +0.000 C 
BRANCH  11  12
ATOM     12  C   UNL     1      39.495  -3.172  16.009  0.00  0.00    +0.000 C 
BRANCH  12  13
ATOM     13  C   UNL     1      38.845  -3.809  17.217  0.00  0.00    +0.000 C 
ATOM     14  C   UNL     1      38.531  -2.830  18.310  0.00  0.00    +0.000 C 
ATOM     15  C   UNL     1      37.649  -4.662  16.827  0.00  0.00    +0.000 C 
ENDBRANCH  12  13
ENDBRANCH  11  12
ENDBRANCH  10  11
ENDBRANCH   6   8
ENDBRANCH   1   2
BRANCH   1  16
ATOM     16  S   UNL     1      37.511   5.362  15.410  0.00  0.00    +0.000 S 
BRANCH  16  20
ATOM     17  C   UNL     1      40.972   6.182  18.258  0.00  0.00    +0.000 A 
ATOM     18  C   UNL     1      39.739   5.808  18.735  0.00  0.00    +0.000 A 
ATOM     19  C   UNL     1      38.687   5.557  17.896  0.00  0.00    +0.000 A 
ATOM     20  C   UNL     1      38.865   5.682  16.535  0.00  0.00    +0.000 A 
ATOM     21  N   UNL     1      40.081   6.049  16.108  0.00  0.00    +0.000 NA
ATOM     22  N   UNL     1      41.101   6.292  16.926  0.00  0.00    +0.000 NA
BRANCH  17  27
ATOM     23  C   UNL     1      45.391   7.229  21.826  0.00  0.00    +0.000 C 
ATOM     24  C   UNL     1      44.265   6.965  20.888  0.00  0.00    +0.000 A 
ATOM     25  C   UNL     1      43.051   6.511  21.359  0.00  0.00    +0.000 A 
ATOM     26  C   UNL     1      41.972   6.251  20.517  0.00  0.00    +0.000 A 
ATOM     27  C   UNL     1      42.098   6.450  19.159  0.00  0.00    +0.000 A 
ATOM     28  C   UNL     1      43.310   6.904  18.693  0.00  0.00    +0.000 A 
ATOM     29  C   UNL     1      44.392   7.165  19.522  0.00  0.00    +0.000 A 
ENDBRANCH  17  27
ENDBRANCH  16  20
ENDBRANCH   1  16
TORSDOF 8
ENDMDL
MODEL 9
REMARK VINA RESULT:      -7.2      2.399      5.100
REMARK  Name = 
REMARK  8 active torsions:
REMARK  status: ('A' for Active; 'I' for Inactive)
REMARK    1  A    between atoms: C_5  and  C_6
REMARK    2  A    between atoms: C_9  and  S_10
REMARK    3  A    between atoms: S_10  and  C_11
REMARK    4  A    between atoms: C_11  and  C_12
REMARK    5  A    between atoms: C_16  and  C_17
REMARK    6  A    between atoms: N_19  and  C_20
REMARK    7  A    between atoms: C_20  and  C_21
REMARK    8  A    between atoms: C_21  and  C_22
REMARK                            x       y       z     vdW  Elec       q    Type
REMARK                         _______ _______ _______ _____ _____    ______ ____
ROOT
ATOM      1  C   UNL     1      35.470   2.987  16.204  0.00  0.00    +0.000 C 
ENDROOT
BRANCH   1   2
ATOM      2  C   UNL     1      35.636   1.514  16.128  0.00  0.00    +0.000 A 
ATOM      3  C   UNL     1      34.787   0.734  16.900  0.00  0.00    +0.000 A 
ATOM      4  C   UNL     1      34.925  -0.637  16.850  0.00  0.00    +0.000 A 
ATOM      5  C   UNL     1      35.901  -1.206  16.037  0.00  0.00    +0.000 A 
ATOM      6  C   UNL     1      36.745  -0.434  15.270  0.00  0.00    +0.000 A 
ATOM      7  C   UNL     1      36.614   0.939  15.313  0.00  0.00    +0.000 A 
BRANCH   6   8
ATOM      8  C   UNL     1      37.760  -1.060  14.428  0.00  0.00    +0.000 C 
ATOM      9  O   UNL     1      37.427  -1.478  13.277  0.00  0.00    +0.000 OA
ATOM     10  N   UNL     1      39.097  -1.230  14.819  0.00  0.00    +0.000 NA
BRANCH  10  11
ATOM     11  C   UNL     1      40.116  -1.859  13.974  0.00  0.00    +0.000 C 
BRANCH  11  12
ATOM     12  C   UNL     1      41.412  -1.791  14.758  0.00  0.00    +0.000 C 
BRANCH  12  13
ATOM     13  C   UNL     1      42.582  -2.015  13.825  0.00  0.00    +0.000 C 
ATOM     14  C   UNL     1      42.343  -1.496  12.437  0.00  0.00    +0.000 C 
ATOM     15  C   UNL     1      43.884  -1.515  14.426  0.00  0.00    +0.000 C 
ENDBRANCH  12  13
ENDBRANCH  11  12
ENDBRANCH  10  11
ENDBRANCH   6   8
ENDBRANCH   1   2
BRANCH   1  16
ATOM     16  S   UNL     1      36.692   3.832  15.155  0.00  0.00    +0.000 S 
BRANCH  16  20
ATOM     17  C   UNL     1      40.041   5.618  17.674  0.00  0.00    +0.000 A 
ATOM     18  C   UNL     1      38.999   4.943  18.263  0.00  0.00    +0.000 A 
ATOM     19  C   UNL     1      37.984   4.399  17.523  0.00  0.00    +0.000 A 
ATOM     20  C   UNL     1      38.003   4.530  16.151  0.00  0.00    +0.000 A 
ATOM     21  N   UNL     1      39.035   5.195  15.615  0.00  0.00    +0.000 NA
ATOM     22  N   UNL     1      40.020   5.723  16.336  0.00  0.00    +0.000 NA
BRANCH  17  27
ATOM     23  C   UNL     1      44.307   7.907  20.824  0.00  0.00    +0.000 C 
ATOM     24  C   UNL     1      43.220   7.319  19.993  0.00  0.00    +0.000 A 
ATOM     25  C   UNL     1      42.034   6.918  20.570  0.00  0.00    +0.000 A 
ATOM     26  C   UNL     1      40.992   6.363  19.831  0.00  0.00    +0.000 A 
ATOM     27  C   UNL     1      41.128   6.201  18.469  0.00  0.00    +0.000 A 
ATOM     28  C   UNL     1      42.313   6.602  17.896  0.00  0.00    +0.000 A 
ATOM     29  C   UNL     1      43.358   7.155  18.623  0.00  0.00    +0.000 A 
ENDBRANCH  17  27
ENDBRANCH  16  20
ENDBRANCH   1  16
TORSDOF 8
ENDMDL
MODEL 10
REMARK VINA RESULT:      -7.1      2.539      8.179
REMARK  Name = 
REMARK  8 active torsions:
REMARK  status: ('A' for Active; 'I' for Inactive)
REMARK    1  A    between atoms: C_5  and  C_6
REMARK    2  A    between atoms: C_9  and  S_10
REMARK    3  A    between atoms: S_10  and  C_11
REMARK    4  A    between atoms: C_11  and  C_12
REMARK    5  A    between atoms: C_16  and  C_17
REMARK    6  A    between atoms: N_19  and  C_20
REMARK    7  A    between atoms: C_20  and  C_21
REMARK    8  A    between atoms: C_21  and  C_22
REMARK                            x       y       z     vdW  Elec       q    Type
REMARK                         _______ _______ _______ _____ _____    ______ ____
ROOT
ATOM      1  C   UNL     1      34.960  -2.683  16.138  0.00  0.00    +0.000 C 
ENDROOT
BRANCH   1   2
ATOM      2  C   UNL     1      35.349  -1.497  16.942  0.00  0.00    +0.000 A 
ATOM      3  C   UNL     1      35.489  -1.672  18.312  0.00  0.00    +0.000 A 
ATOM      4  C   UNL     1      35.845  -0.584  19.081  0.00  0.00    +0.000 A 
ATOM      5  C   UNL     1      36.054   0.653  18.478  0.00  0.00    +0.000 A 
ATOM      6  C   UNL     1      35.916   0.828  17.118  0.00  0.00    +0.000 A 
ATOM      7  C   UNL     1      35.561  -0.255  16.341  0.00  0.00    +0.000 A 
BRANCH   6   8
ATOM      8  C   UNL     1      36.142   2.138  16.515  0.00  0.00    +0.000 C 
ATOM      9  O   UNL     1      35.333   2.551  15.628  0.00  0.00    +0.000 OA
ATOM     10  N   UNL     1      37.211   2.979  16.861  0.00  0.00    +0.000 NA
BRANCH  10  11
ATOM     11  C   UNL     1      37.437   4.295  16.256  0.00  0.00    +0.000 C 
BRANCH  11  12
ATOM     12  C   UNL     1      38.941   4.477  16.196  0.00  0.00    +0.000 C 
BRANCH  12  13
ATOM     13  C   UNL     1      39.352   5.610  17.110  0.00  0.00    +0.000 C 
ATOM     14  C   UNL     1      38.752   6.931  16.726  0.00  0.00    +0.000 C 
ATOM     15  C   UNL     1      39.128   5.262  18.572  0.00  0.00    +0.000 C 
ENDBRANCH  12  13
ENDBRANCH  11  12
ENDBRANCH  10  11
ENDBRANCH   6   8
ENDBRANCH   1   2
BRANCH   1  16
ATOM     16  S   UNL     1      36.204  -4.001  16.286  0.00  0.00    +0.000 S 
BRANCH  16  20
ATOM     17  C   UNL     1      40.235  -2.616  14.679  0.00  0.00    +0.000 A 
ATOM     18  C   UNL     1      39.078  -2.385  13.975  0.00  0.00    +0.000 A 
ATOM     19  C   UNL     1      37.858  -2.794  14.442  0.00  0.00    +0.000 A 
ATOM     20  C   UNL     1      37.783  -3.455  15.649  0.00  0.00    +0.000 A 
ATOM     21  N   UNL     1      38.932  -3.660  16.305  0.00  0.00    +0.000 NA
ATOM     22  N   UNL     1      40.116  -3.263  15.850  0.00  0.00    +0.000 NA
BRANCH  17  27
ATOM     23  C   UNL     1      45.383  -0.914  12.690  0.00  0.00    +0.000 C 
ATOM     24  C   UNL     1      44.053  -1.332  13.214  0.00  0.00    +0.000 A 
ATOM     25  C   UNL     1      43.520  -2.558  12.876  0.00  0.00    +0.000 A 
ATOM     26  C   UNL     1      42.280  -2.989  13.343  0.00  0.00    +0.000 A 
ATOM     27  C   UNL     1      41.542  -2.178  14.178  0.00  0.00    +0.000 A 
ATOM     28  C   UNL     1      42.077  -0.956  14.513  0.00  0.00    +0.000 A 
ATOM     29  C   UNL     1      43.311  -0.516  14.053  0.00  0.00    +0.000 A 
ENDBRANCH  17  27
ENDBRANCH  16  20
ENDBRANCH   1  16
TORSDOF 8
ENDMDL
