MODEL 1
REMARK VINA RESULT:      -6.1      0.000      0.000
REMARK  Name = 
REMARK  3 active torsions:
REMARK  status: ('A' for Active; 'I' for Inactive)
REMARK    1  A    between atoms: C_2  and  C_3
REMARK    2  A    between atoms: C_3  and  C_4
REMARK    3  A    between atoms: C_10  and  C_11
REMARK                            x       y       z     vdW  Elec       q    Type
REMARK                         _______ _______ _______ _____ _____    ______ ____
ROOT
ATOM      1  C   UNL     1      21.584  -6.815  24.821  0.00  0.00    +0.000 A 
ATOM      2  C   UNL     1      20.494  -6.245  25.392  0.00  0.00    +0.000 A 
ATOM      3  C   UNL     1      19.685  -6.995  26.137  0.00  0.00    +0.000 A 
ATOM      4  C   UNL     1      20.006  -8.317  26.282  0.00  0.00    +0.000 A 
ATOM      5  S   UNL     1      21.454  -8.439  25.350  0.00  0.00    +0.000 S 
ATOM      6  N   UNL     1      19.251  -9.255  27.031  0.00  0.00    +0.000 NA
ATOM      7  C   UNL     1      18.684  -8.624  28.388  0.00  0.00    +0.000 C 
ATOM      8  N   UNL     1      17.729  -7.612  27.591  0.00  0.00    +0.000 NA
ATOM      9  C   UNL     1      18.437  -6.623  26.858  0.00  0.00    +0.000 C 
ATOM     10  O   UNL     1      18.024  -5.440  26.812  0.00  0.00    +0.000 OA
ENDROOT
BRANCH   7  11
ATOM     11  C   UNL     1      17.557  -9.693  28.698  0.00  0.00    +0.000 A 
ATOM     12  C   UNL     1      16.741 -10.250  27.818  0.00  0.00    +0.000 A 
ATOM     13  C   UNL     1      15.761 -11.189  28.129  0.00  0.00    +0.000 A 
ATOM     14  C   UNL     1      15.654 -11.543  29.441  0.00  0.00    +0.000 A 
ATOM     15  C   UNL     1      16.470 -11.002  30.399  0.00  0.00    +0.000 A 
ATOM     16  C   UNL     1      17.448 -10.050  30.011  0.00  0.00    +0.000 A 
ENDBRANCH   7  11
BRANCH   1  17
ATOM     17  C   UNL     1      22.612  -6.162  23.958  0.00  0.00    +0.000 C 
BRANCH  17  19
ATOM     18  C   UNL     1      24.888  -7.005  23.595  0.00  0.00    +0.000 C 
ATOM     19  C   UNL     1      23.958  -6.343  24.561  0.00  0.00    +0.000 C 
ENDBRANCH  17  19
ENDBRANCH   1  17
TORSDOF 3
ENDMDL
MODEL 2
REMARK VINA RESULT:      -6.1     35.666     36.401
REMARK  Name = 
REMARK  3 active torsions:
REMARK  status: ('A' for Active; 'I' for Inactive)
REMARK    1  A    between atoms: C_2  and  C_3
REMARK    2  A    between atoms: C_3  and  C_4
REMARK    3  A    between atoms: C_10  and  C_11
REMARK                            x       y       z     vdW  Elec       q    Type
REMARK                         _______ _______ _______ _____ _____    ______ ____
ROOT
ATOM      1  C   UNL     1      29.269  22.904  13.183  0.00  0.00    +0.000 A 
ATOM      2  C   UNL     1      30.495  22.340  13.054  0.00  0.00    +0.000 A 
ATOM      3  C   UNL     1      30.829  21.772  11.897  0.00  0.00    +0.000 A 
ATOM      4  C   UNL     1      29.899  21.791  10.894  0.00  0.00    +0.000 A 
ATOM      5  S   UNL     1      28.582  22.621  11.640  0.00  0.00    +0.000 S 
ATOM      6  N   UNL     1      30.087  21.226   9.607  0.00  0.00    +0.000 NA
ATOM      7  C   UNL     1      31.569  21.468   9.054  0.00  0.00    +0.000 C 
ATOM      8  N   UNL     1      32.212  20.544  10.195  0.00  0.00    +0.000 NA
ATOM      9  C   UNL     1      32.089  21.087  11.501  0.00  0.00    +0.000 C 
ATOM     10  O   UNL     1      33.031  20.996  12.325  0.00  0.00    +0.000 OA
ENDROOT
BRANCH   7  11
ATOM     11  C   UNL     1      31.589  20.360   7.923  0.00  0.00    +0.000 A 
ATOM     12  C   UNL     1      32.651  19.703   7.486  0.00  0.00    +0.000 A 
ATOM     13  C   UNL     1      32.627  18.733   6.487  0.00  0.00    +0.000 A 
ATOM     14  C   UNL     1      31.411  18.457   5.937  0.00  0.00    +0.000 A 
ATOM     15  C   UNL     1      30.275  19.102   6.348  0.00  0.00    +0.000 A 
ATOM     16  C   UNL     1      30.371  20.081   7.371  0.00  0.00    +0.000 A 
ENDBRANCH   7  11
BRANCH   1  17
ATOM     17  C   UNL     1      28.698  23.588  14.382  0.00  0.00    +0.000 C 
BRANCH  17  19
ATOM     18  C   UNL     1      28.957  25.900  15.163  0.00  0.00    +0.000 C 
ATOM     19  C   UNL     1      28.448  25.019  14.067  0.00  0.00    +0.000 C 
ENDBRANCH  17  19
ENDBRANCH   1  17
TORSDOF 3
ENDMDL
MODEL 3
REMARK VINA RESULT:      -6.0     35.732     36.682
REMARK  Name = 
REMARK  3 active torsions:
REMARK  status: ('A' for Active; 'I' for Inactive)
REMARK    1  A    between atoms: C_2  and  C_3
REMARK    2  A    between atoms: C_3  and  C_4
REMARK    3  A    between atoms: C_10  and  C_11
REMARK                            x       y       z     vdW  Elec       q    Type
REMARK                         _______ _______ _______ _____ _____    ______ ____
ROOT
ATOM      1  C   UNL     1      33.240  21.551   7.915  0.00  0.00    +0.000 A 
ATOM      2  C   UNL     1      33.395  21.290   9.237  0.00  0.00    +0.000 A 
ATOM      3  C   UNL     1      32.434  21.649  10.085  0.00  0.00    +0.000 A 
ATOM      4  C   UNL     1      31.332  22.270   9.564  0.00  0.00    +0.000 A 
ATOM      5  S   UNL     1      31.709  22.318   7.880  0.00  0.00    +0.000 S 
ATOM      6  N   UNL     1      30.224  22.724  10.324  0.00  0.00    +0.000 NA
ATOM      7  C   UNL     1      29.838  21.701  11.494  0.00  0.00    +0.000 C 
ATOM      8  N   UNL     1      31.219  21.964  12.264  0.00  0.00    +0.000 NA
ATOM      9  C   UNL     1      32.359  21.488  11.563  0.00  0.00    +0.000 C 
ATOM     10  O   UNL     1      33.303  20.933  12.174  0.00  0.00    +0.000 OA
ENDROOT
BRANCH   7  11
ATOM     11  C   UNL     1      28.970  22.677  12.390  0.00  0.00    +0.000 A 
ATOM     12  C   UNL     1      29.392  23.361  13.440  0.00  0.00    +0.000 A 
ATOM     13  C   UNL     1      28.597  24.211  14.204  0.00  0.00    +0.000 A 
ATOM     14  C   UNL     1      27.294  24.330  13.823  0.00  0.00    +0.000 A 
ATOM     15  C   UNL     1      26.797  23.648  12.743  0.00  0.00    +0.000 A 
ATOM     16  C   UNL     1      27.664  22.797  12.009  0.00  0.00    +0.000 A 
ENDBRANCH   7  11
BRANCH   1  17
ATOM     17  C   UNL     1      34.186  21.237   6.803  0.00  0.00    +0.000 C 
BRANCH  17  19
ATOM     18  C   UNL     1      33.365  19.359   5.453  0.00  0.00    +0.000 C 
ATOM     19  C   UNL     1      33.419  20.847   5.591  0.00  0.00    +0.000 C 
ENDBRANCH  17  19
ENDBRANCH   1  17
TORSDOF 3
ENDMDL
MODEL 4
REMARK VINA RESULT:      -6.0     35.709     36.803
REMARK  Name = 
REMARK  3 active torsions:
REMARK  status: ('A' for Active; 'I' for Inactive)
REMARK    1  A    between atoms: C_2  and  C_3
REMARK    2  A    between atoms: C_3  and  C_4
REMARK    3  A    between atoms: C_10  and  C_11
REMARK                            x       y       z     vdW  Elec       q    Type
REMARK                         _______ _______ _______ _____ _____    ______ ____
ROOT
ATOM      1  C   UNL     1      33.982  21.965   8.448  0.00  0.00    +0.000 A 
ATOM      2  C   UNL     1      33.816  21.460   9.696  0.00  0.00    +0.000 A 
ATOM      3  C   UNL     1      32.682  21.707  10.349  0.00  0.00    +0.000 A 
ATOM      4  C   UNL     1      31.739  22.467   9.712  0.00  0.00    +0.000 A 
ATOM      5  S   UNL     1      32.507  22.801   8.203  0.00  0.00    +0.000 S 
ATOM      6  N   UNL     1      30.485  22.830  10.265  0.00  0.00    +0.000 NA
ATOM      7  C   UNL     1      29.826  21.632  11.098  0.00  0.00    +0.000 C 
ATOM      8  N   UNL     1      30.985  21.682  12.204  0.00  0.00    +0.000 NA
ATOM      9  C   UNL     1      32.257  21.284  11.711  0.00  0.00    +0.000 C 
ATOM     10  O   UNL     1      33.025  20.581  12.410  0.00  0.00    +0.000 OA
ENDROOT
BRANCH   7  11
ATOM     11  C   UNL     1      28.775  22.471  11.934  0.00  0.00    +0.000 A 
ATOM     12  C   UNL     1      27.483  22.592  11.676  0.00  0.00    +0.000 A 
ATOM     13  C   UNL     1      26.589  23.341  12.436  0.00  0.00    +0.000 A 
ATOM     14  C   UNL     1      27.105  23.986  13.520  0.00  0.00    +0.000 A 
ATOM     15  C   UNL     1      28.434  23.899  13.841  0.00  0.00    +0.000 A 
ATOM     16  C   UNL     1      29.290  23.118  13.021  0.00  0.00    +0.000 A 
ENDBRANCH   7  11
BRANCH   1  17
ATOM     17  C   UNL     1      35.164  21.810   7.549  0.00  0.00    +0.000 C 
BRANCH  17  19
ATOM     18  C   UNL     1      37.428  21.720   8.491  0.00  0.00    +0.000 C 
ATOM     19  C   UNL     1      36.300  22.610   8.077  0.00  0.00    +0.000 C 
ENDBRANCH  17  19
ENDBRANCH   1  17
TORSDOF 3
ENDMDL
MODEL 5
REMARK VINA RESULT:      -5.9     32.778     35.178
REMARK  Name = 
REMARK  3 active torsions:
REMARK  status: ('A' for Active; 'I' for Inactive)
REMARK    1  A    between atoms: C_2  and  C_3
REMARK    2  A    between atoms: C_3  and  C_4
REMARK    3  A    between atoms: C_10  and  C_11
REMARK                            x       y       z     vdW  Elec       q    Type
REMARK                         _______ _______ _______ _____ _____    ______ ____
ROOT
ATOM      1  C   UNL     1      27.222  27.954  21.213  0.00  0.00    +0.000 A 
ATOM      2  C   UNL     1      28.043  26.932  20.869  0.00  0.00    +0.000 A 
ATOM      3  C   UNL     1      28.331  25.999  21.773  0.00  0.00    +0.000 A 
ATOM      4  C   UNL     1      27.773  26.131  23.016  0.00  0.00    +0.000 A 
ATOM      5  S   UNL     1      26.856  27.584  22.845  0.00  0.00    +0.000 S 
ATOM      6  N   UNL     1      27.980  25.236  24.095  0.00  0.00    +0.000 NA
ATOM      7  C   UNL     1      28.012  23.710  23.613  0.00  0.00    +0.000 C 
ATOM      8  N   UNL     1      29.362  23.938  22.779  0.00  0.00    +0.000 NA
ATOM      9  C   UNL     1      29.198  24.795  21.658  0.00  0.00    +0.000 C 
ATOM     10  O   UNL     1      29.774  24.548  20.572  0.00  0.00    +0.000 OA
ENDROOT
BRANCH   7  11
ATOM     11  C   UNL     1      28.717  23.072  24.880  0.00  0.00    +0.000 A 
ATOM     12  C   UNL     1      28.124  22.701  26.004  0.00  0.00    +0.000 A 
ATOM     13  C   UNL     1      28.779  22.143  27.098  0.00  0.00    +0.000 A 
ATOM     14  C   UNL     1      30.127  21.976  26.980  0.00  0.00    +0.000 A 
ATOM     15  C   UNL     1      30.797  22.340  25.842  0.00  0.00    +0.000 A 
ATOM     16  C   UNL     1      30.067  22.904  24.764  0.00  0.00    +0.000 A 
ENDBRANCH   7  11
BRANCH   1  17
ATOM     17  C   UNL     1      26.774  29.095  20.359  0.00  0.00    +0.000 C 
BRANCH  17  19
ATOM     18  C   UNL     1      26.427  28.986  17.931  0.00  0.00    +0.000 C 
ATOM     19  C   UNL     1      25.896  28.589  19.271  0.00  0.00    +0.000 C 
ENDBRANCH  17  19
ENDBRANCH   1  17
TORSDOF 3
ENDMDL
MODEL 6
REMARK VINA RESULT:      -5.7     32.078     34.909
REMARK  Name = 
REMARK  3 active torsions:
REMARK  status: ('A' for Active; 'I' for Inactive)
REMARK    1  A    between atoms: C_2  and  C_3
REMARK    2  A    between atoms: C_3  and  C_4
REMARK    3  A    between atoms: C_10  and  C_11
REMARK                            x       y       z     vdW  Elec       q    Type
REMARK                         _______ _______ _______ _____ _____    ______ ____
ROOT
ATOM      1  C   UNL     1      27.943  22.870  26.537  0.00  0.00    +0.000 A 
ATOM      2  C   UNL     1      27.149  22.781  25.441  0.00  0.00    +0.000 A 
ATOM      3  C   UNL     1      27.421  23.537  24.380  0.00  0.00    +0.000 A 
ATOM      4  C   UNL     1      28.503  24.372  24.461  0.00  0.00    +0.000 A 
ATOM      5  S   UNL     1      29.091  24.045  26.051  0.00  0.00    +0.000 S 
ATOM      6  N   UNL     1      28.927  25.248  23.430  0.00  0.00    +0.000 NA
ATOM      7  C   UNL     1      28.793  24.581  21.981  0.00  0.00    +0.000 C 
ATOM      8  N   UNL     1      27.194  24.534  22.083  0.00  0.00    +0.000 NA
ATOM      9  C   UNL     1      26.715  23.636  23.074  0.00  0.00    +0.000 C 
ATOM     10  O   UNL     1      25.704  22.925  22.861  0.00  0.00    +0.000 OA
ENDROOT
BRANCH   7  11
ATOM     11  C   UNL     1      28.856  25.898  21.104  0.00  0.00    +0.000 A 
ATOM     12  C   UNL     1      29.734  26.164  20.150  0.00  0.00    +0.000 A 
ATOM     13  C   UNL     1      29.757  27.336  19.399  0.00  0.00    +0.000 A 
ATOM     14  C   UNL     1      28.796  28.259  19.683  0.00  0.00    +0.000 A 
ATOM     15  C   UNL     1      27.858  28.042  20.658  0.00  0.00    +0.000 A 
ATOM     16  C   UNL     1      27.893  26.824  21.387  0.00  0.00    +0.000 A 
ENDBRANCH   7  11
BRANCH   1  17
ATOM     17  C   UNL     1      27.817  22.119  27.821  0.00  0.00    +0.000 C 
BRANCH  17  19
ATOM     18  C   UNL     1      26.739  22.109  30.026  0.00  0.00    +0.000 C 
ATOM     19  C   UNL     1      26.849  22.813  28.711  0.00  0.00    +0.000 C 
ENDBRANCH  17  19
ENDBRANCH   1  17
TORSDOF 3
ENDMDL
MODEL 7
REMARK VINA RESULT:      -5.7     31.993     32.980
REMARK  Name = 
REMARK  3 active torsions:
REMARK  status: ('A' for Active; 'I' for Inactive)
REMARK    1  A    between atoms: C_2  and  C_3
REMARK    2  A    between atoms: C_3  and  C_4
REMARK    3  A    between atoms: C_10  and  C_11
REMARK                            x       y       z     vdW  Elec       q    Type
REMARK                         _______ _______ _______ _____ _____    ______ ____
ROOT
ATOM      1  C   UNL     1      30.051  22.841  31.187  0.00  0.00    +0.000 A 
ATOM      2  C   UNL     1      28.724  22.957  30.939  0.00  0.00    +0.000 A 
ATOM      3  C   UNL     1      28.301  23.004  29.678  0.00  0.00    +0.000 A 
ATOM      4  C   UNL     1      29.248  22.932  28.692  0.00  0.00    +0.000 A 
ATOM      5  S   UNL     1      30.707  22.799  29.605  0.00  0.00    +0.000 S 
ATOM      6  N   UNL     1      28.972  22.976  27.302  0.00  0.00    +0.000 NA
ATOM      7  C   UNL     1      27.651  22.156  26.924  0.00  0.00    +0.000 C 
ATOM      8  N   UNL     1      26.713  23.172  27.736  0.00  0.00    +0.000 NA
ATOM      9  C   UNL     1      26.919  23.135  29.141  0.00  0.00    +0.000 C 
ATOM     10  O   UNL     1      25.951  23.211  29.933  0.00  0.00    +0.000 OA
ENDROOT
BRANCH   7  11
ATOM     11  C   UNL     1      27.374  22.789  25.500  0.00  0.00    +0.000 A 
ATOM     12  C   UNL     1      28.285  23.171  24.620  0.00  0.00    +0.000 A 
ATOM     13  C   UNL     1      28.002  23.725  23.375  0.00  0.00    +0.000 A 
ATOM     14  C   UNL     1      26.684  23.874  23.061  0.00  0.00    +0.000 A 
ATOM     15  C   UNL     1      25.693  23.497  23.929  0.00  0.00    +0.000 A 
ATOM     16  C   UNL     1      26.054  22.939  25.184  0.00  0.00    +0.000 A 
ENDBRANCH   7  11
BRANCH   1  17
ATOM     17  C   UNL     1      30.732  22.771  32.514  0.00  0.00    +0.000 C 
BRANCH  17  19
ATOM     18  C   UNL     1      30.552  21.236  34.422  0.00  0.00    +0.000 C 
ATOM     19  C   UNL     1      30.820  21.354  32.955  0.00  0.00    +0.000 C 
ENDBRANCH  17  19
ENDBRANCH   1  17
TORSDOF 3
ENDMDL
MODEL 8
REMARK VINA RESULT:      -5.6      1.883      7.113
REMARK  Name = 
REMARK  3 active torsions:
REMARK  status: ('A' for Active; 'I' for Inactive)
REMARK    1  A    between atoms: C_2  and  C_3
REMARK    2  A    between atoms: C_3  and  C_4
REMARK    3  A    between atoms: C_10  and  C_11
REMARK                            x       y       z     vdW  Elec       q    Type
REMARK                         _______ _______ _______ _____ _____    ______ ____
ROOT
ATOM      1  C   UNL     1      18.674  -9.809  28.505  0.00  0.00    +0.000 A 
ATOM      2  C   UNL     1      18.581  -8.677  27.764  0.00  0.00    +0.000 A 
ATOM      3  C   UNL     1      19.567  -8.368  26.926  0.00  0.00    +0.000 A 
ATOM      4  C   UNL     1      20.632  -9.225  26.861  0.00  0.00    +0.000 A 
ATOM      5  S   UNL     1      20.184 -10.441  28.001  0.00  0.00    +0.000 S 
ATOM      6  N   UNL     1      21.767  -9.043  26.031  0.00  0.00    +0.000 NA
ATOM      7  C   UNL     1      21.372  -8.469  24.590  0.00  0.00    +0.000 C 
ATOM      8  N   UNL     1      20.877  -7.077  25.211  0.00  0.00    +0.000 NA
ATOM      9  C   UNL     1      19.714  -7.198  26.018  0.00  0.00    +0.000 C 
ATOM     10  O   UNL     1      18.809  -6.331  25.974  0.00  0.00    +0.000 OA
ENDROOT
BRANCH   7  11
ATOM     11  C   UNL     1      22.797  -7.943  24.141  0.00  0.00    +0.000 A 
ATOM     12  C   UNL     1      23.672  -8.592  23.390  0.00  0.00    +0.000 A 
ATOM     13  C   UNL     1      24.918  -8.096  23.017  0.00  0.00    +0.000 A 
ATOM     14  C   UNL     1      25.236  -6.849  23.468  0.00  0.00    +0.000 A 
ATOM     15  C   UNL     1      24.371  -6.127  24.248  0.00  0.00    +0.000 A 
ATOM     16  C   UNL     1      23.117  -6.695  24.592  0.00  0.00    +0.000 A 
ENDBRANCH   7  11
BRANCH   1  17
ATOM     17  C   UNL     1      17.690 -10.338  29.496  0.00  0.00    +0.000 C 
BRANCH  17  19
ATOM     18  C   UNL     1      19.172  -9.904  31.404  0.00  0.00    +0.000 C 
ATOM     19  C   UNL     1      17.843  -9.612  30.785  0.00  0.00    +0.000 C 
ENDBRANCH  17  19
ENDBRANCH   1  17
TORSDOF 3
ENDMDL
MODEL 9
REMARK VINA RESULT:      -5.6     21.135     24.035
REMARK  Name = 
REMARK  3 active torsions:
REMARK  status: ('A' for Active; 'I' for Inactive)
REMARK    1  A    between atoms: C_2  and  C_3
REMARK    2  A    between atoms: C_3  and  C_4
REMARK    3  A    between atoms: C_10  and  C_11
REMARK                            x       y       z     vdW  Elec       q    Type
REMARK                         _______ _______ _______ _____ _____    ______ ____
ROOT
ATOM      1  C   UNL     1      33.804   3.615  34.383  0.00  0.00    +0.000 A 
ATOM      2  C   UNL     1      34.963   4.027  34.954  0.00  0.00    +0.000 A 
ATOM      3  C   UNL     1      35.109   5.311  35.272  0.00  0.00    +0.000 A 
ATOM      4  C   UNL     1      34.064   6.152  34.998  0.00  0.00    +0.000 A 
ATOM      5  S   UNL     1      32.911   5.075  34.297  0.00  0.00    +0.000 S 
ATOM      6  N   UNL     1      34.055   7.544  35.263  0.00  0.00    +0.000 NA
ATOM      7  C   UNL     1      34.756   7.895  36.659  0.00  0.00    +0.000 C 
ATOM      8  N   UNL     1      36.190   7.412  36.132  0.00  0.00    +0.000 NA
ATOM      9  C   UNL     1      36.265   6.014  35.892  0.00  0.00    +0.000 C 
ATOM     10  O   UNL     1      37.294   5.365  36.196  0.00  0.00    +0.000 OA
ENDROOT
BRANCH   7  11
ATOM     11  C   UNL     1      35.011   9.439  36.419  0.00  0.00    +0.000 A 
ATOM     12  C   UNL     1      34.142  10.418  36.614  0.00  0.00    +0.000 A 
ATOM     13  C   UNL     1      34.405  11.767  36.390  0.00  0.00    +0.000 A 
ATOM     14  C   UNL     1      35.653  12.077  35.940  0.00  0.00    +0.000 A 
ATOM     15  C   UNL     1      36.597  11.108  35.720  0.00  0.00    +0.000 A 
ATOM     16  C   UNL     1      36.262   9.752  35.968  0.00  0.00    +0.000 A 
ENDBRANCH   7  11
BRANCH   1  17
ATOM     17  C   UNL     1      33.437   2.234  33.952  0.00  0.00    +0.000 C 
BRANCH  17  19
ATOM     18  C   UNL     1      34.266   0.558  32.361  0.00  0.00    +0.000 C 
ATOM     19  C   UNL     1      33.920   1.999  32.566  0.00  0.00    +0.000 C 
ENDBRANCH  17  19
ENDBRANCH   1  17
TORSDOF 3
ENDMDL
MODEL 10
REMARK VINA RESULT:      -5.6     18.273     19.091
REMARK  Name = 
REMARK  3 active torsions:
REMARK  status: ('A' for Active; 'I' for Inactive)
REMARK    1  A    between atoms: C_2  and  C_3
REMARK    2  A    between atoms: C_3  and  C_4
REMARK    3  A    between atoms: C_10  and  C_11
REMARK                            x       y       z     vdW  Elec       q    Type
REMARK                         _______ _______ _______ _____ _____    ______ ____
ROOT
ATOM      1  C   UNL     1      24.744   3.113  40.715  0.00  0.00    +0.000 A 
ATOM      2  C   UNL     1      23.631   2.349  40.588  0.00  0.00    +0.000 A 
ATOM      3  C   UNL     1      22.435   2.916  40.727  0.00  0.00    +0.000 A 
ATOM      4  C   UNL     1      22.401   4.257  40.997  0.00  0.00    +0.000 A 
ATOM      5  S   UNL     1      24.079   4.659  41.039  0.00  0.00    +0.000 S 
ATOM      6  N   UNL     1      21.217   5.015  41.183  0.00  0.00    +0.000 NA
ATOM      7  C   UNL     1      20.057   4.577  40.169  0.00  0.00    +0.000 C 
ATOM      8  N   UNL     1      19.932   3.127  40.841  0.00  0.00    +0.000 NA
ATOM      9  C   UNL     1      21.078   2.311  40.645  0.00  0.00    +0.000 C 
ATOM     10  O   UNL     1      20.960   1.086  40.403  0.00  0.00    +0.000 OA
ENDROOT
BRANCH   7  11
ATOM     11  C   UNL     1      18.821   5.210  40.930  0.00  0.00    +0.000 A 
ATOM     12  C   UNL     1      18.110   6.255  40.539  0.00  0.00    +0.000 A 
ATOM     13  C   UNL     1      17.028   6.784  41.237  0.00  0.00    +0.000 A 
ATOM     14  C   UNL     1      16.695   6.162  42.404  0.00  0.00    +0.000 A 
ATOM     15  C   UNL     1      17.392   5.075  42.861  0.00  0.00    +0.000 A 
ATOM     16  C   UNL     1      18.486   4.589  42.099  0.00  0.00    +0.000 A 
ENDBRANCH   7  11
BRANCH   1  17
ATOM     17  C   UNL     1      26.169   2.682  40.597  0.00  0.00    +0.000 C 
BRANCH  17  19
ATOM     18  C   UNL     1      27.347   3.962  38.865  0.00  0.00    +0.000 C 
ATOM     19  C   UNL     1      26.582   2.713  39.169  0.00  0.00    +0.000 C 
ENDBRANCH  17  19
ENDBRANCH   1  17
TORSDOF 3
ENDMDL
