MODEL 1
REMARK VINA RESULT:      -7.9      0.000      0.000
REMARK  Name = 
REMARK  2 active torsions:
REMARK  status: ('A' for Active; 'I' for Inactive)
REMARK    1  A    between atoms: N_12  and  N_13
REMARK    2  A    between atoms: C_14  and  C_16
REMARK                            x       y       z     vdW  Elec       q    Type
REMARK                         _______ _______ _______ _____ _____    ______ ____
ROOT
ATOM      1  C   UNL     1      13.595  14.062  31.890  0.00  0.00    +0.000 C 
ATOM      2  C   UNL     1      14.485  12.889  32.036  0.00  0.00    +0.000 A 
ATOM      3  C   UNL     1      14.846  12.220  30.893  0.00  0.00    +0.000 A 
ATOM      4  C   UNL     1      15.671  11.119  30.949  0.00  0.00    +0.000 A 
ATOM      5  C   UNL     1      16.137  10.686  32.172  0.00  0.00    +0.000 A 
ATOM      6  C   UNL     1      15.795  11.337  33.349  0.00  0.00    +0.000 A 
ATOM      7  C   UNL     1      14.955  12.450  33.246  0.00  0.00    +0.000 A 
ATOM      8  N   UNL     1      14.739  12.952  34.555  0.00  0.00    +0.000 NA
ATOM      9  C   UNL     1      15.452  12.146  35.517  0.00  0.00    +0.000 C 
ATOM     10  O   UNL     1      15.492  12.291  36.762  0.00  0.00    +0.000 OA
ATOM     11  C   UNL     1      16.123  11.119  34.745  0.00  0.00    +0.000 C 
ATOM     12  N   UNL     1      16.864  10.196  35.210  0.00  0.00    +0.000 NA
ENDROOT
BRANCH  12  13
ATOM     13  N   UNL     1      17.144  10.038  36.579  0.00  0.00    +0.000 NA
ATOM     14  C   UNL     1      18.474   9.736  37.018  0.00  0.00    +0.000 C 
ATOM     15  O   UNL     1      19.350   9.626  36.119  0.00  0.00    +0.000 OA
BRANCH  14  16
ATOM     16  C   UNL     1      18.787   9.567  38.442  0.00  0.00    +0.000 A 
ATOM     17  C   UNL     1      18.537   8.482  39.260  0.00  0.00    +0.000 A 
ATOM     18  C   UNL     1      19.003   8.770  40.515  0.00  0.00    +0.000 A 
ATOM     19  O   UNL     1      19.515   9.976  40.467  0.00  0.00    +0.000 OA
ATOM     20  C   UNL     1      19.412  10.487  39.265  0.00  0.00    +0.000 A 
ATOM     21  C   UNL     1      19.906  11.842  38.909  0.00  0.00    +0.000 C 
ENDBRANCH  14  16
ENDBRANCH  12  13
TORSDOF 2
ENDMDL
MODEL 2
REMARK VINA RESULT:      -6.9      3.413      7.240
REMARK  Name = 
REMARK  2 active torsions:
REMARK  status: ('A' for Active; 'I' for Inactive)
REMARK    1  A    between atoms: N_12  and  N_13
REMARK    2  A    between atoms: C_14  and  C_16
REMARK                            x       y       z     vdW  Elec       q    Type
REMARK                         _______ _______ _______ _____ _____    ______ ____
ROOT
ATOM      1  C   UNL     1      25.282  12.208  38.070  0.00  0.00    +0.000 C 
ATOM      2  C   UNL     1      24.271  11.265  37.541  0.00  0.00    +0.000 A 
ATOM      3  C   UNL     1      24.724  10.174  36.841  0.00  0.00    +0.000 A 
ATOM      4  C   UNL     1      23.843   9.255  36.319  0.00  0.00    +0.000 A 
ATOM      5  C   UNL     1      22.488   9.437  36.502  0.00  0.00    +0.000 A 
ATOM      6  C   UNL     1      21.993  10.528  37.203  0.00  0.00    +0.000 A 
ATOM      7  C   UNL     1      22.922  11.436  37.717  0.00  0.00    +0.000 A 
ATOM      8  N   UNL     1      22.203  12.459  38.387  0.00  0.00    +0.000 NA
ATOM      9  C   UNL     1      20.785  12.203  38.303  0.00  0.00    +0.000 C 
ATOM     10  O   UNL     1      19.850  12.890  38.777  0.00  0.00    +0.000 OA
ATOM     11  C   UNL     1      20.656  10.972  37.548  0.00  0.00    +0.000 C 
ATOM     12  N   UNL     1      19.566  10.390  37.245  0.00  0.00    +0.000 NA
ENDROOT
BRANCH  12  13
ATOM     13  N   UNL     1      18.297  10.874  37.610  0.00  0.00    +0.000 NA
ATOM     14  C   UNL     1      17.121  10.411  36.936  0.00  0.00    +0.000 C 
ATOM     15  O   UNL     1      17.298   9.565  36.019  0.00  0.00    +0.000 OA
BRANCH  14  16
ATOM     16  C   UNL     1      15.788  10.904  37.302  0.00  0.00    +0.000 A 
ATOM     17  C   UNL     1      15.080  10.700  38.470  0.00  0.00    +0.000 A 
ATOM     18  C   UNL     1      13.880  11.351  38.367  0.00  0.00    +0.000 A 
ATOM     19  O   UNL     1      13.854  11.927  37.190  0.00  0.00    +0.000 OA
ATOM     20  C   UNL     1      14.958  11.692  36.524  0.00  0.00    +0.000 A 
ATOM     21  C   UNL     1      15.215  12.217  35.158  0.00  0.00    +0.000 C 
ENDBRANCH  14  16
ENDBRANCH  12  13
TORSDOF 2
ENDMDL
MODEL 3
REMARK VINA RESULT:      -6.6     21.066     22.805
REMARK  Name = 
REMARK  2 active torsions:
REMARK  status: ('A' for Active; 'I' for Inactive)
REMARK    1  A    between atoms: N_12  and  N_13
REMARK    2  A    between atoms: C_14  and  C_16
REMARK                            x       y       z     vdW  Elec       q    Type
REMARK                         _______ _______ _______ _____ _____    ______ ____
ROOT
ATOM      1  C   UNL     1      17.774  -8.613  28.082  0.00  0.00    +0.000 C 
ATOM      2  C   UNL     1      18.460  -7.567  27.290  0.00  0.00    +0.000 A 
ATOM      3  C   UNL     1      17.935  -6.299  27.324  0.00  0.00    +0.000 A 
ATOM      4  C   UNL     1      18.518  -5.274  26.613  0.00  0.00    +0.000 A 
ATOM      5  C   UNL     1      19.643  -5.531  25.858  0.00  0.00    +0.000 A 
ATOM      6  C   UNL     1      20.202  -6.799  25.800  0.00  0.00    +0.000 A 
ATOM      7  C   UNL     1      19.579  -7.810  26.537  0.00  0.00    +0.000 A 
ATOM      8  N   UNL     1      20.309  -9.009  26.333  0.00  0.00    +0.000 NA
ATOM      9  C   UNL     1      21.423  -8.764  25.448  0.00  0.00    +0.000 C 
ATOM     10  O   UNL     1      22.281  -9.585  25.047  0.00  0.00    +0.000 OA
ATOM     11  C   UNL     1      21.352  -7.356  25.112  0.00  0.00    +0.000 C 
ATOM     12  N   UNL     1      22.152  -6.726  24.350  0.00  0.00    +0.000 NA
ENDROOT
BRANCH  12  13
ATOM     13  N   UNL     1      23.251  -7.325  23.709  0.00  0.00    +0.000 NA
ATOM     14  C   UNL     1      24.589  -6.970  24.078  0.00  0.00    +0.000 C 
ATOM     15  O   UNL     1      24.709  -6.109  24.990  0.00  0.00    +0.000 OA
BRANCH  14  16
ATOM     16  C   UNL     1      25.750  -7.583  23.421  0.00  0.00    +0.000 A 
ATOM     17  C   UNL     1      26.631  -7.021  22.518  0.00  0.00    +0.000 A 
ATOM     18  C   UNL     1      27.558  -7.967  22.172  0.00  0.00    +0.000 A 
ATOM     19  O   UNL     1      27.258  -9.059  22.833  0.00  0.00    +0.000 OA
ATOM     20  C   UNL     1      26.199  -8.882  23.584  0.00  0.00    +0.000 A 
ATOM     21  C   UNL     1      25.624  -9.945  24.447  0.00  0.00    +0.000 C 
ENDBRANCH  14  16
ENDBRANCH  12  13
TORSDOF 2
ENDMDL
MODEL 4
REMARK VINA RESULT:      -6.3     29.022     31.526
REMARK  Name = 
REMARK  2 active torsions:
REMARK  status: ('A' for Active; 'I' for Inactive)
REMARK    1  A    between atoms: N_12  and  N_13
REMARK    2  A    between atoms: C_14  and  C_16
REMARK                            x       y       z     vdW  Elec       q    Type
REMARK                         _______ _______ _______ _____ _____    ______ ____
ROOT
ATOM      1  C   UNL     1      36.044  18.902   7.965  0.00  0.00    +0.000 C 
ATOM      2  C   UNL     1      34.685  19.340   7.573  0.00  0.00    +0.000 A 
ATOM      3  C   UNL     1      34.387  19.364   6.233  0.00  0.00    +0.000 A 
ATOM      4  C   UNL     1      33.145  19.759   5.792  0.00  0.00    +0.000 A 
ATOM      5  C   UNL     1      32.190  20.137   6.714  0.00  0.00    +0.000 A 
ATOM      6  C   UNL     1      32.454  20.126   8.076  0.00  0.00    +0.000 A 
ATOM      7  C   UNL     1      33.729  19.717   8.479  0.00  0.00    +0.000 A 
ATOM      8  N   UNL     1      33.777  19.783   9.895  0.00  0.00    +0.000 NA
ATOM      9  C   UNL     1      32.509  20.244  10.412  0.00  0.00    +0.000 C 
ATOM     10  O   UNL     1      32.187  20.423  11.610  0.00  0.00    +0.000 OA
ATOM     11  C   UNL     1      31.671  20.461   9.250  0.00  0.00    +0.000 C 
ATOM     12  N   UNL     1      30.467  20.870   9.261  0.00  0.00    +0.000 NA
ENDROOT
BRANCH  12  13
ATOM     13  N   UNL     1      29.760  21.179  10.437  0.00  0.00    +0.000 NA
ATOM     14  C   UNL     1      29.626  22.538  10.868  0.00  0.00    +0.000 C 
ATOM     15  O   UNL     1      30.169  23.413  10.141  0.00  0.00    +0.000 OA
BRANCH  14  16
ATOM     16  C   UNL     1      28.893  22.881  12.093  0.00  0.00    +0.000 A 
ATOM     17  C   UNL     1      29.388  23.335  13.300  0.00  0.00    +0.000 A 
ATOM     18  C   UNL     1      28.336  23.523  14.156  0.00  0.00    +0.000 A 
ATOM     19  O   UNL     1      27.246  23.198  13.503  0.00  0.00    +0.000 OA
ATOM     20  C   UNL     1      27.523  22.813  12.281  0.00  0.00    +0.000 A 
ATOM     21  C   UNL     1      26.488  22.385  11.305  0.00  0.00    +0.000 C 
ENDBRANCH  14  16
ENDBRANCH  12  13
TORSDOF 2
ENDMDL
MODEL 5
REMARK VINA RESULT:      -6.2     20.687     22.293
REMARK  Name = 
REMARK  2 active torsions:
REMARK  status: ('A' for Active; 'I' for Inactive)
REMARK    1  A    between atoms: N_12  and  N_13
REMARK    2  A    between atoms: C_14  and  C_16
REMARK                            x       y       z     vdW  Elec       q    Type
REMARK                         _______ _______ _______ _____ _____    ______ ____
ROOT
ATOM      1  C   UNL     1      10.116 -10.279  23.481  0.00  0.00    +0.000 C 
ATOM      2  C   UNL     1      10.891  -9.743  24.623  0.00  0.00    +0.000 A 
ATOM      3  C   UNL     1      10.240  -9.608  25.825  0.00  0.00    +0.000 A 
ATOM      4  C   UNL     1      10.895  -9.117  26.931  0.00  0.00    +0.000 A 
ATOM      5  C   UNL     1      12.222  -8.756  26.826  0.00  0.00    +0.000 A 
ATOM      6  C   UNL     1      12.913  -8.878  25.629  0.00  0.00    +0.000 A 
ATOM      7  C   UNL     1      12.210  -9.382  24.531  0.00  0.00    +0.000 A 
ATOM      8  N   UNL     1      13.100  -9.420  23.428  0.00  0.00    +0.000 NA
ATOM      9  C   UNL     1      14.400  -8.931  23.824  0.00  0.00    +0.000 C 
ATOM     10  O   UNL     1      15.429  -8.822  23.116  0.00  0.00    +0.000 OA
ATOM     11  C   UNL     1      14.276  -8.588  25.226  0.00  0.00    +0.000 C 
ATOM     12  N   UNL     1      15.197  -8.117  25.967  0.00  0.00    +0.000 NA
ENDROOT
BRANCH  12  13
ATOM     13  N   UNL     1      16.502  -7.857  25.515  0.00  0.00    +0.000 NA
ATOM     14  C   UNL     1      17.548  -7.559  26.447  0.00  0.00    +0.000 C 
ATOM     15  O   UNL     1      17.226  -7.547  27.665  0.00  0.00    +0.000 OA
BRANCH  14  16
ATOM     16  C   UNL     1      18.917  -7.284  25.995  0.00  0.00    +0.000 A 
ATOM     17  C   UNL     1      19.857  -8.163  25.494  0.00  0.00    +0.000 A 
ATOM     18  C   UNL     1      20.995  -7.461  25.203  0.00  0.00    +0.000 A 
ATOM     19  O   UNL     1      20.764  -6.208  25.513  0.00  0.00    +0.000 OA
ATOM     20  C   UNL     1      19.551  -6.053  25.984  0.00  0.00    +0.000 A 
ATOM     21  C   UNL     1      19.005  -4.742  26.419  0.00  0.00    +0.000 C 
ENDBRANCH  14  16
ENDBRANCH  12  13
TORSDOF 2
ENDMDL
MODEL 6
REMARK VINA RESULT:      -6.0     18.830     19.680
REMARK  Name = 
REMARK  2 active torsions:
REMARK  status: ('A' for Active; 'I' for Inactive)
REMARK    1  A    between atoms: N_12  and  N_13
REMARK    2  A    between atoms: C_14  and  C_16
REMARK                            x       y       z     vdW  Elec       q    Type
REMARK                         _______ _______ _______ _____ _____    ______ ____
ROOT
ATOM      1  C   UNL     1      33.561  -0.627  36.194  0.00  0.00    +0.000 C 
ATOM      2  C   UNL     1      33.621   0.478  35.210  0.00  0.00    +0.000 A 
ATOM      3  C   UNL     1      33.464   0.157  33.884  0.00  0.00    +0.000 A 
ATOM      4  C   UNL     1      33.507   1.130  32.912  0.00  0.00    +0.000 A 
ATOM      5  C   UNL     1      33.713   2.443  33.280  0.00  0.00    +0.000 A 
ATOM      6  C   UNL     1      33.876   2.806  34.609  0.00  0.00    +0.000 A 
ATOM      7  C   UNL     1      33.824   1.786  35.564  0.00  0.00    +0.000 A 
ATOM      8  N   UNL     1      34.013   2.377  36.839  0.00  0.00    +0.000 NA
ATOM      9  C   UNL     1      34.189   3.803  36.702  0.00  0.00    +0.000 C 
ATOM     10  O   UNL     1      34.379   4.645  37.612  0.00  0.00    +0.000 OA
ATOM     11  C   UNL     1      34.100   4.072  35.281  0.00  0.00    +0.000 C 
ATOM     12  N   UNL     1      34.203   5.212  34.726  0.00  0.00    +0.000 NA
ENDROOT
BRANCH  12  13
ATOM     13  N   UNL     1      34.422   6.406  35.436  0.00  0.00    +0.000 NA
ATOM     14  C   UNL     1      35.680   7.084  35.345  0.00  0.00    +0.000 C 
ATOM     15  O   UNL     1      36.552   6.552  34.607  0.00  0.00    +0.000 OA
BRANCH  14  16
ATOM     16  C   UNL     1      35.929   8.331  36.078  0.00  0.00    +0.000 A 
ATOM     17  C   UNL     1      35.498   9.610  35.784  0.00  0.00    +0.000 A 
ATOM     18  C   UNL     1      35.972  10.459  36.747  0.00  0.00    +0.000 A 
ATOM     19  O   UNL     1      36.663   9.734  37.593  0.00  0.00    +0.000 OA
ATOM     20  C   UNL     1      36.666   8.472  37.241  0.00  0.00    +0.000 A 
ATOM     21  C   UNL     1      37.368   7.412  38.010  0.00  0.00    +0.000 C 
ENDBRANCH  14  16
ENDBRANCH  12  13
TORSDOF 2
ENDMDL
MODEL 7
REMARK VINA RESULT:      -5.9      6.003      7.359
REMARK  Name = 
REMARK  2 active torsions:
REMARK  status: ('A' for Active; 'I' for Inactive)
REMARK    1  A    between atoms: N_12  and  N_13
REMARK    2  A    between atoms: C_14  and  C_16
REMARK                            x       y       z     vdW  Elec       q    Type
REMARK                         _______ _______ _______ _____ _____    ______ ____
ROOT
ATOM      1  C   UNL     1      25.101  13.271  37.580  0.00  0.00    +0.000 C 
ATOM      2  C   UNL     1      24.382  12.018  37.258  0.00  0.00    +0.000 A 
ATOM      3  C   UNL     1      24.792  11.317  36.151  0.00  0.00    +0.000 A 
ATOM      4  C   UNL     1      24.171  10.143  35.788  0.00  0.00    +0.000 A 
ATOM      5  C   UNL     1      23.123   9.671  36.550  0.00  0.00    +0.000 A 
ATOM      6  C   UNL     1      22.680  10.351  37.675  0.00  0.00    +0.000 A 
ATOM      7  C   UNL     1      23.339  11.539  38.007  0.00  0.00    +0.000 A 
ATOM      8  N   UNL     1      22.729  12.060  39.176  0.00  0.00    +0.000 NA
ATOM      9  C   UNL     1      21.657  11.192  39.604  0.00  0.00    +0.000 C 
ATOM     10  O   UNL     1      20.902  11.334  40.594  0.00  0.00    +0.000 OA
ATOM     11  C   UNL     1      21.630  10.106  38.645  0.00  0.00    +0.000 C 
ATOM     12  N   UNL     1      20.830   9.117  38.655  0.00  0.00    +0.000 NA
ENDROOT
BRANCH  12  13
ATOM     13  N   UNL     1      19.830   8.935  39.627  0.00  0.00    +0.000 NA
ATOM     14  C   UNL     1      18.451   8.859  39.245  0.00  0.00    +0.000 C 
ATOM     15  O   UNL     1      18.204   8.962  38.014  0.00  0.00    +0.000 OA
BRANCH  14  16
ATOM     16  C   UNL     1      17.392   8.670  40.244  0.00  0.00    +0.000 A 
ATOM     17  C   UNL     1      16.434   9.569  40.670  0.00  0.00    +0.000 A 
ATOM     18  C   UNL     1      15.656   8.956  41.616  0.00  0.00    +0.000 A 
ATOM     19  O   UNL     1      16.118   7.738  41.763  0.00  0.00    +0.000 OA
ATOM     20  C   UNL     1      17.142   7.522  40.975  0.00  0.00    +0.000 A 
ATOM     21  C   UNL     1      17.873   6.230  40.922  0.00  0.00    +0.000 C 
ENDBRANCH  14  16
ENDBRANCH  12  13
TORSDOF 2
ENDMDL
MODEL 8
REMARK VINA RESULT:      -5.9     18.074     19.523
REMARK  Name = 
REMARK  2 active torsions:
REMARK  status: ('A' for Active; 'I' for Inactive)
REMARK    1  A    between atoms: N_12  and  N_13
REMARK    2  A    between atoms: C_14  and  C_16
REMARK                            x       y       z     vdW  Elec       q    Type
REMARK                         _______ _______ _______ _____ _____    ______ ____
ROOT
ATOM      1  C   UNL     1      22.320  27.156  30.934  0.00  0.00    +0.000 C 
ATOM      2  C   UNL     1      22.252  26.770  29.507  0.00  0.00    +0.000 A 
ATOM      3  C   UNL     1      21.018  26.774  28.907  0.00  0.00    +0.000 A 
ATOM      4  C   UNL     1      20.875  26.426  27.583  0.00  0.00    +0.000 A 
ATOM      5  C   UNL     1      21.991  26.069  26.854  0.00  0.00    +0.000 A 
ATOM      6  C   UNL     1      23.255  26.053  27.427  0.00  0.00    +0.000 A 
ATOM      7  C   UNL     1      23.354  26.414  28.774  0.00  0.00    +0.000 A 
ATOM      8  N   UNL     1      24.720  26.328  29.146  0.00  0.00    +0.000 NA
ATOM      9  C   UNL     1      25.514  25.904  28.017  0.00  0.00    +0.000 C 
ATOM     10  O   UNL     1      26.753  25.721  27.974  0.00  0.00    +0.000 OA
ATOM     11  C   UNL     1      24.577  25.731  26.925  0.00  0.00    +0.000 C 
ATOM     12  N   UNL     1      24.865  25.362  25.742  0.00  0.00    +0.000 NA
ENDROOT
BRANCH  12  13
ATOM     13  N   UNL     1      26.171  25.063  25.316  0.00  0.00    +0.000 NA
ATOM     14  C   UNL     1      26.529  23.723  24.956  0.00  0.00    +0.000 C 
ATOM     15  O   UNL     1      25.618  22.857  25.044  0.00  0.00    +0.000 OA
BRANCH  14  16
ATOM     16  C   UNL     1      27.887  23.390  24.510  0.00  0.00    +0.000 A 
ATOM     17  C   UNL     1      28.932  22.859  25.240  0.00  0.00    +0.000 A 
ATOM     18  C   UNL     1      30.011  22.716  24.410  0.00  0.00    +0.000 A 
ATOM     19  O   UNL     1      29.644  23.141  23.225  0.00  0.00    +0.000 OA
ATOM     20  C   UNL     1      28.398  23.548  23.234  0.00  0.00    +0.000 A 
ATOM     21  C   UNL     1      27.706  24.083  22.033  0.00  0.00    +0.000 C 
ENDBRANCH  14  16
ENDBRANCH  12  13
TORSDOF 2
ENDMDL
MODEL 9
REMARK VINA RESULT:      -5.8     21.605     23.407
REMARK  Name = 
REMARK  2 active torsions:
REMARK  status: ('A' for Active; 'I' for Inactive)
REMARK    1  A    between atoms: N_12  and  N_13
REMARK    2  A    between atoms: C_14  and  C_16
REMARK                            x       y       z     vdW  Elec       q    Type
REMARK                         _______ _______ _______ _____ _____    ______ ____
ROOT
ATOM      1  C   UNL     1      27.955 -10.486  23.317  0.00  0.00    +0.000 C 
ATOM      2  C   UNL     1      27.058  -9.309  23.296  0.00  0.00    +0.000 A 
ATOM      3  C   UNL     1      27.484  -8.199  22.610  0.00  0.00    +0.000 A 
ATOM      4  C   UNL     1      26.704  -7.066  22.546  0.00  0.00    +0.000 A 
ATOM      5  C   UNL     1      25.481  -7.052  23.183  0.00  0.00    +0.000 A 
ATOM      6  C   UNL     1      25.017  -8.154  23.886  0.00  0.00    +0.000 A 
ATOM      7  C   UNL     1      25.840  -9.283  23.925  0.00  0.00    +0.000 A 
ATOM      8  N   UNL     1      25.177 -10.277  24.688  0.00  0.00    +0.000 NA
ATOM      9  C   UNL     1      23.903  -9.778  25.149  0.00  0.00    +0.000 C 
ATOM     10  O   UNL     1      23.050 -10.376  25.846  0.00  0.00    +0.000 OA
ATOM     11  C   UNL     1      23.805  -8.427  24.635  0.00  0.00    +0.000 C 
ATOM     12  N   UNL     1      22.833  -7.626  24.812  0.00  0.00    +0.000 NA
ENDROOT
BRANCH  12  13
ATOM     13  N   UNL     1      21.682  -7.951  25.552  0.00  0.00    +0.000 NA
ATOM     14  C   UNL     1      20.617  -7.003  25.693  0.00  0.00    +0.000 C 
ATOM     15  O   UNL     1      20.779  -5.890  25.124  0.00  0.00    +0.000 OA
BRANCH  14  16
ATOM     16  C   UNL     1      19.409  -7.322  26.462  0.00  0.00    +0.000 A 
ATOM     17  C   UNL     1      18.969  -8.551  26.913  0.00  0.00    +0.000 A 
ATOM     18  C   UNL     1      17.791  -8.369  27.586  0.00  0.00    +0.000 A 
ATOM     19  O   UNL     1      17.521  -7.086  27.549  0.00  0.00    +0.000 OA
ATOM     20  C   UNL     1      18.447  -6.427  26.897  0.00  0.00    +0.000 A 
ATOM     21  C   UNL     1      18.410  -4.956  26.691  0.00  0.00    +0.000 C 
ENDBRANCH  14  16
ENDBRANCH  12  13
TORSDOF 2
ENDMDL
MODEL 10
REMARK VINA RESULT:      -5.8     22.388     23.783
REMARK  Name = 
REMARK  2 active torsions:
REMARK  status: ('A' for Active; 'I' for Inactive)
REMARK    1  A    between atoms: N_12  and  N_13
REMARK    2  A    between atoms: C_14  and  C_16
REMARK                            x       y       z     vdW  Elec       q    Type
REMARK                         _______ _______ _______ _____ _____    ______ ____
ROOT
ATOM      1  C   UNL     1      31.092  27.861  17.212  0.00  0.00    +0.000 C 
ATOM      2  C   UNL     1      30.344  28.278  18.419  0.00  0.00    +0.000 A 
ATOM      3  C   UNL     1      30.060  29.614  18.559  0.00  0.00    +0.000 A 
ATOM      4  C   UNL     1      29.368  30.078  19.655  0.00  0.00    +0.000 A 
ATOM      5  C   UNL     1      28.958  29.184  20.622  0.00  0.00    +0.000 A 
ATOM      6  C   UNL     1      29.226  27.827  20.515  0.00  0.00    +0.000 A 
ATOM      7  C   UNL     1      29.931  27.400  19.386  0.00  0.00    +0.000 A 
ATOM      8  N   UNL     1      30.091  25.994  19.482  0.00  0.00    +0.000 NA
ATOM      9  C   UNL     1      29.478  25.508  20.696  0.00  0.00    +0.000 C 
ATOM     10  O   UNL     1      29.424  24.327  21.111  0.00  0.00    +0.000 OA
ATOM     11  C   UNL     1      28.929  26.679  21.350  0.00  0.00    +0.000 C 
ATOM     12  N   UNL     1      28.300  26.694  22.456  0.00  0.00    +0.000 NA
ENDROOT
BRANCH  12  13
ATOM     13  N   UNL     1      28.044  25.542  23.221  0.00  0.00    +0.000 NA
ATOM     14  C   UNL     1      28.569  25.420  24.548  0.00  0.00    +0.000 C 
ATOM     15  O   UNL     1      29.257  26.387  24.970  0.00  0.00    +0.000 OA
BRANCH  14  16
ATOM     16  C   UNL     1      28.313  24.226  25.362  0.00  0.00    +0.000 A 
ATOM     17  C   UNL     1      27.320  24.012  26.298  0.00  0.00    +0.000 A 
ATOM     18  C   UNL     1      27.470  22.751  26.808  0.00  0.00    +0.000 A 
ATOM     19  O   UNL     1      28.508  22.215  26.212  0.00  0.00    +0.000 OA
ATOM     20  C   UNL     1      29.038  23.047  25.349  0.00  0.00    +0.000 A 
ATOM     21  C   UNL     1      30.228  22.717  24.523  0.00  0.00    +0.000 C 
ENDBRANCH  14  16
ENDBRANCH  12  13
TORSDOF 2
ENDMDL
