MODEL 1
REMARK VINA RESULT:      -7.5      0.000      0.000
REMARK  Name = 
REMARK  8 active torsions:
REMARK  status: ('A' for Active; 'I' for Inactive)
REMARK    1  A    between atoms: C_6  and  C_7
REMARK    2  A    between atoms: C_10  and  N_11
REMARK    3  A    between atoms: C_12  and  C_14
REMARK    4  A    between atoms: C_14  and  O_15
REMARK    5  A    between atoms: O_15  and  C_16
REMARK    6  A    between atoms: C_16  and  C_18
REMARK    7  A    between atoms: C_18  and  C_19
REMARK    8  A    between atoms: C_18  and  C_25
REMARK                            x       y       z     vdW  Elec       q    Type
REMARK                         _______ _______ _______ _____ _____    ______ ____
ROOT
ATOM      1  O   UNL     1      36.000   2.208  15.742  0.00  0.00    +0.000 OA
ENDROOT
BRANCH   1   2
ATOM      2  C   UNL     1      36.340   3.385  15.098  0.00  0.00    +0.000 C 
ATOM      3  O   UNL     1      35.401   4.160  14.787  0.00  0.00    +0.000 OA
BRANCH   2   4
ATOM      4  C   UNL     1      37.732   3.765  14.766  0.00  0.00    +0.000 C 
BRANCH   4   5
ATOM      5  C   UNL     1      38.490   2.703  14.097  0.00  0.00    +0.000 A 
ATOM      6  C   UNL     1      38.233   2.444  12.766  0.00  0.00    +0.000 A 
ATOM      7  C   UNL     1      38.940   1.445  12.121  0.00  0.00    +0.000 A 
ATOM      8  C   UNL     1      39.895   0.710  12.803  0.00  0.00    +0.000 A 
ATOM      9  C   UNL     1      40.128   0.991  14.126  0.00  0.00    +0.000 A 
ATOM     10  C   UNL     1      39.431   1.983  14.775  0.00  0.00    +0.000 A 
ENDBRANCH   4   5
BRANCH   4  11
ATOM     11  C   UNL     1      38.414   4.409  15.880  0.00  0.00    +0.000 A 
ATOM     12  C   UNL     1      38.019   4.206  17.180  0.00  0.00    +0.000 A 
ATOM     13  C   UNL     1      38.682   4.829  18.240  0.00  0.00    +0.000 A 
ATOM     14  C   UNL     1      39.745   5.659  17.992  0.00  0.00    +0.000 A 
ATOM     15  C   UNL     1      40.155   5.873  16.690  0.00  0.00    +0.000 A 
ATOM     16  C   UNL     1      39.483   5.244  15.650  0.00  0.00    +0.000 A 
ENDBRANCH   4  11
ENDBRANCH   2   4
ENDBRANCH   1   2
BRANCH   1  17
ATOM     17  C   UNL     1      35.718   1.005  15.089  0.00  0.00    +0.000 C 
BRANCH  17  19
ATOM     18  N   UNL     1      37.294  -0.224  16.573  0.00  0.00    +0.000 NA
ATOM     19  C   UNL     1      36.034  -0.188  15.914  0.00  0.00    +0.000 C 
ATOM     20  O   UNL     1      35.248  -1.150  16.054  0.00  0.00    +0.000 OA
BRANCH  18  27
ATOM     21  C   UNL     1      36.476  -0.234  19.249  0.00  0.00    +0.000 C 
ATOM     22  C   UNL     1      37.324  -1.331  18.717  0.00  0.00    +0.000 A 
ATOM     23  C   UNL     1      37.745  -2.391  19.492  0.00  0.00    +0.000 A 
ATOM     24  C   UNL     1      38.537  -3.415  18.991  0.00  0.00    +0.000 A 
ATOM     25  C   UNL     1      38.894  -3.334  17.663  0.00  0.00    +0.000 A 
ATOM     26  C   UNL     1      38.504  -2.299  16.841  0.00  0.00    +0.000 A 
ATOM     27  C   UNL     1      37.715  -1.307  17.391  0.00  0.00    +0.000 A 
BRANCH  26  28
ATOM     28  C   UNL     1      38.885  -2.212  15.423  0.00  0.00    +0.000 C 
ATOM     29  C   UNL     1      37.929  -3.025  14.580  0.00  0.00    +0.000 C 
ATOM     30  C   UNL     1      40.319  -2.506  15.150  0.00  0.00    +0.000 C 
ENDBRANCH  26  28
ENDBRANCH  18  27
ENDBRANCH  17  19
ENDBRANCH   1  17
TORSDOF 8
ENDMDL
MODEL 2
REMARK VINA RESULT:      -7.5      2.096      4.651
REMARK  Name = 
REMARK  8 active torsions:
REMARK  status: ('A' for Active; 'I' for Inactive)
REMARK    1  A    between atoms: C_6  and  C_7
REMARK    2  A    between atoms: C_10  and  N_11
REMARK    3  A    between atoms: C_12  and  C_14
REMARK    4  A    between atoms: C_14  and  O_15
REMARK    5  A    between atoms: O_15  and  C_16
REMARK    6  A    between atoms: C_16  and  C_18
REMARK    7  A    between atoms: C_18  and  C_19
REMARK    8  A    between atoms: C_18  and  C_25
REMARK                            x       y       z     vdW  Elec       q    Type
REMARK                         _______ _______ _______ _____ _____    ______ ____
ROOT
ATOM      1  O   UNL     1      39.218   2.449  15.152  0.00  0.00    +0.000 OA
ENDROOT
BRANCH   1   2
ATOM      2  C   UNL     1      39.466   3.639  14.493  0.00  0.00    +0.000 C 
ATOM      3  O   UNL     1      40.158   3.580  13.445  0.00  0.00    +0.000 OA
BRANCH   2   4
ATOM      4  C   UNL     1      38.964   4.953  14.955  0.00  0.00    +0.000 C 
BRANCH   4   5
ATOM      5  C   UNL     1      39.362   5.289  16.326  0.00  0.00    +0.000 A 
ATOM      6  C   UNL     1      40.523   6.009  16.520  0.00  0.00    +0.000 A 
ATOM      7  C   UNL     1      40.913   6.332  17.807  0.00  0.00    +0.000 A 
ATOM      8  C   UNL     1      40.146   5.937  18.891  0.00  0.00    +0.000 A 
ATOM      9  C   UNL     1      38.997   5.223  18.666  0.00  0.00    +0.000 A 
ATOM     10  C   UNL     1      38.601   4.897  17.389  0.00  0.00    +0.000 A 
ENDBRANCH   4   5
BRANCH   4  11
ATOM     11  C   UNL     1      37.552   5.147  14.652  0.00  0.00    +0.000 A 
ATOM     12  C   UNL     1      36.684   4.087  14.559  0.00  0.00    +0.000 A 
ATOM     13  C   UNL     1      35.333   4.286  14.268  0.00  0.00    +0.000 A 
ATOM     14  C   UNL     1      34.852   5.555  14.070  0.00  0.00    +0.000 A 
ATOM     15  C   UNL     1      35.712   6.633  14.161  0.00  0.00    +0.000 A 
ATOM     16  C   UNL     1      37.053   6.413  14.451  0.00  0.00    +0.000 A 
ENDBRANCH   4  11
ENDBRANCH   2   4
ENDBRANCH   1   2
BRANCH   1  17
ATOM     17  C   UNL     1      39.293   1.187  14.556  0.00  0.00    +0.000 C 
BRANCH  17  19
ATOM     18  N   UNL     1      37.896  -0.550  15.663  0.00  0.00    +0.000 NA
ATOM     19  C   UNL     1      38.017   0.432  14.642  0.00  0.00    +0.000 C 
ATOM     20  O   UNL     1      37.057   0.621  13.864  0.00  0.00    +0.000 OA
BRANCH  18  27
ATOM     21  C   UNL     1      37.712  -2.965  14.261  0.00  0.00    +0.000 C 
ATOM     22  C   UNL     1      36.616  -2.536  15.168  0.00  0.00    +0.000 A 
ATOM     23  C   UNL     1      35.475  -3.285  15.365  0.00  0.00    +0.000 A 
ATOM     24  C   UNL     1      34.454  -2.880  16.213  0.00  0.00    +0.000 A 
ATOM     25  C   UNL     1      34.624  -1.678  16.865  0.00  0.00    +0.000 A 
ATOM     26  C   UNL     1      35.741  -0.889  16.707  0.00  0.00    +0.000 A 
ATOM     27  C   UNL     1      36.728  -1.340  15.851  0.00  0.00    +0.000 A 
BRANCH  26  28
ATOM     28  C   UNL     1      35.924   0.394  17.402  0.00  0.00    +0.000 C 
ATOM     29  C   UNL     1      35.844   0.187  18.899  0.00  0.00    +0.000 C 
ATOM     30  C   UNL     1      35.053   1.496  16.906  0.00  0.00    +0.000 C 
ENDBRANCH  26  28
ENDBRANCH  18  27
ENDBRANCH  17  19
ENDBRANCH   1  17
TORSDOF 8
ENDMDL
MODEL 3
REMARK VINA RESULT:      -7.4      2.013      4.106
REMARK  Name = 
REMARK  8 active torsions:
REMARK  status: ('A' for Active; 'I' for Inactive)
REMARK    1  A    between atoms: C_6  and  C_7
REMARK    2  A    between atoms: C_10  and  N_11
REMARK    3  A    between atoms: C_12  and  C_14
REMARK    4  A    between atoms: C_14  and  O_15
REMARK    5  A    between atoms: O_15  and  C_16
REMARK    6  A    between atoms: C_16  and  C_18
REMARK    7  A    between atoms: C_18  and  C_19
REMARK    8  A    between atoms: C_18  and  C_25
REMARK                            x       y       z     vdW  Elec       q    Type
REMARK                         _______ _______ _______ _____ _____    ______ ____
ROOT
ATOM      1  O   UNL     1      39.355   2.466  15.088  0.00  0.00    +0.000 OA
ENDROOT
BRANCH   1   2
ATOM      2  C   UNL     1      39.487   3.674  14.427  0.00  0.00    +0.000 C 
ATOM      3  O   UNL     1      40.118   3.666  13.340  0.00  0.00    +0.000 OA
BRANCH   2   4
ATOM      4  C   UNL     1      38.931   4.951  14.931  0.00  0.00    +0.000 C 
BRANCH   4   5
ATOM      5  C   UNL     1      39.329   5.265  16.307  0.00  0.00    +0.000 A 
ATOM      6  C   UNL     1      40.476   6.007  16.510  0.00  0.00    +0.000 A 
ATOM      7  C   UNL     1      40.866   6.312  17.802  0.00  0.00    +0.000 A 
ATOM      8  C   UNL     1      40.114   5.877  18.882  0.00  0.00    +0.000 A 
ATOM      9  C   UNL     1      38.979   5.142  18.647  0.00  0.00    +0.000 A 
ATOM     10  C   UNL     1      38.584   4.835  17.366  0.00  0.00    +0.000 A 
ENDBRANCH   4   5
BRANCH   4  11
ATOM     11  C   UNL     1      37.509   5.088  14.649  0.00  0.00    +0.000 A 
ATOM     12  C   UNL     1      36.667   4.002  14.645  0.00  0.00    +0.000 A 
ATOM     13  C   UNL     1      35.306   4.147  14.373  0.00  0.00    +0.000 A 
ATOM     14  C   UNL     1      34.787   5.387  14.104  0.00  0.00    +0.000 A 
ATOM     15  C   UNL     1      35.619   6.490  14.104  0.00  0.00    +0.000 A 
ATOM     16  C   UNL     1      36.971   6.325  14.377  0.00  0.00    +0.000 A 
ENDBRANCH   4  11
ENDBRANCH   2   4
ENDBRANCH   1   2
BRANCH   1  17
ATOM     17  C   UNL     1      39.284   1.223  14.453  0.00  0.00    +0.000 C 
BRANCH  17  19
ATOM     18  N   UNL     1      37.797  -0.082  15.962  0.00  0.00    +0.000 NA
ATOM     19  C   UNL     1      37.996   0.525  14.692  0.00  0.00    +0.000 C 
ATOM     20  O   UNL     1      37.089   0.450  13.834  0.00  0.00    +0.000 OA
BRANCH  18  27
ATOM     21  C   UNL     1      35.710   1.390  17.107  0.00  0.00    +0.000 C 
ATOM     22  C   UNL     1      35.565  -0.071  16.884  0.00  0.00    +0.000 A 
ATOM     23  C   UNL     1      34.424  -0.768  17.219  0.00  0.00    +0.000 A 
ATOM     24  C   UNL     1      34.293  -2.133  17.008  0.00  0.00    +0.000 A 
ATOM     25  C   UNL     1      35.367  -2.782  16.440  0.00  0.00    +0.000 A 
ATOM     26  C   UNL     1      36.532  -2.139  16.085  0.00  0.00    +0.000 A 
ATOM     27  C   UNL     1      36.609  -0.779  16.316  0.00  0.00    +0.000 A 
BRANCH  26  28
ATOM     28  C   UNL     1      37.679  -2.831  15.478  0.00  0.00    +0.000 C 
ATOM     29  C   UNL     1      37.291  -3.388  14.126  0.00  0.00    +0.000 C 
ATOM     30  C   UNL     1      38.340  -3.828  16.365  0.00  0.00    +0.000 C 
ENDBRANCH  26  28
ENDBRANCH  18  27
ENDBRANCH  17  19
ENDBRANCH   1  17
TORSDOF 8
ENDMDL
MODEL 4
REMARK VINA RESULT:      -7.4      2.348      5.372
REMARK  Name = 
REMARK  8 active torsions:
REMARK  status: ('A' for Active; 'I' for Inactive)
REMARK    1  A    between atoms: C_6  and  C_7
REMARK    2  A    between atoms: C_10  and  N_11
REMARK    3  A    between atoms: C_12  and  C_14
REMARK    4  A    between atoms: C_14  and  O_15
REMARK    5  A    between atoms: O_15  and  C_16
REMARK    6  A    between atoms: C_16  and  C_18
REMARK    7  A    between atoms: C_18  and  C_19
REMARK    8  A    between atoms: C_18  and  C_25
REMARK                            x       y       z     vdW  Elec       q    Type
REMARK                         _______ _______ _______ _____ _____    ______ ____
ROOT
ATOM      1  O   UNL     1      38.692   4.552  16.549  0.00  0.00    +0.000 OA
ENDROOT
BRANCH   1   2
ATOM      2  C   UNL     1      38.876   4.719  17.910  0.00  0.00    +0.000 C 
ATOM      3  O   UNL     1      38.280   3.914  18.671  0.00  0.00    +0.000 OA
BRANCH   2   4
ATOM      4  C   UNL     1      39.724   5.779  18.500  0.00  0.00    +0.000 C 
BRANCH   4   5
ATOM      5  C   UNL     1      38.964   6.914  19.034  0.00  0.00    +0.000 A 
ATOM      6  C   UNL     1      39.294   7.402  20.282  0.00  0.00    +0.000 A 
ATOM      7  C   UNL     1      38.587   8.472  20.800  0.00  0.00    +0.000 A 
ATOM      8  C   UNL     1      37.557   9.048  20.074  0.00  0.00    +0.000 A 
ATOM      9  C   UNL     1      37.253   8.540  18.836  0.00  0.00    +0.000 A 
ATOM     10  C   UNL     1      37.952   7.477  18.313  0.00  0.00    +0.000 A 
ENDBRANCH   4   5
BRANCH   4  11
ATOM     11  C   UNL     1      40.850   6.131  17.646  0.00  0.00    +0.000 A 
ATOM     12  C   UNL     1      42.084   6.432  18.169  0.00  0.00    +0.000 A 
ATOM     13  C   UNL     1      43.155   6.768  17.338  0.00  0.00    +0.000 A 
ATOM     14  C   UNL     1      42.986   6.803  15.978  0.00  0.00    +0.000 A 
ATOM     15  C   UNL     1      41.751   6.502  15.436  0.00  0.00    +0.000 A 
ATOM     16  C   UNL     1      40.698   6.170  16.279  0.00  0.00    +0.000 A 
ENDBRANCH   4  11
ENDBRANCH   2   4
ENDBRANCH   1   2
BRANCH   1  17
ATOM     17  C   UNL     1      37.454   4.625  15.906  0.00  0.00    +0.000 C 
BRANCH  17  19
ATOM     18  N   UNL     1      37.455   2.140  16.041  0.00  0.00    +0.000 NA
ATOM     19  C   UNL     1      36.997   3.314  15.382  0.00  0.00    +0.000 C 
ATOM     20  O   UNL     1      36.234   3.198  14.398  0.00  0.00    +0.000 OA
BRANCH  18  27
ATOM     21  C   UNL     1      35.232   0.967  17.270  0.00  0.00    +0.000 C 
ATOM     22  C   UNL     1      35.996   0.227  16.234  0.00  0.00    +0.000 A 
ATOM     23  C   UNL     1      35.662  -1.047  15.829  0.00  0.00    +0.000 A 
ATOM     24  C   UNL     1      36.378  -1.735  14.859  0.00  0.00    +0.000 A 
ATOM     25  C   UNL     1      37.459  -1.085  14.304  0.00  0.00    +0.000 A 
ATOM     26  C   UNL     1      37.840   0.187  14.670  0.00  0.00    +0.000 A 
ATOM     27  C   UNL     1      37.091   0.826  15.639  0.00  0.00    +0.000 A 
BRANCH  26  28
ATOM     28  C   UNL     1      38.994   0.882  14.078  0.00  0.00    +0.000 C 
ATOM     29  C   UNL     1      38.789   1.047  12.589  0.00  0.00    +0.000 C 
ATOM     30  C   UNL     1      40.316   0.299  14.436  0.00  0.00    +0.000 C 
ENDBRANCH  26  28
ENDBRANCH  18  27
ENDBRANCH  17  19
ENDBRANCH   1  17
TORSDOF 8
ENDMDL
MODEL 5
REMARK VINA RESULT:      -7.3      1.076      3.532
REMARK  Name = 
REMARK  8 active torsions:
REMARK  status: ('A' for Active; 'I' for Inactive)
REMARK    1  A    between atoms: C_6  and  C_7
REMARK    2  A    between atoms: C_10  and  N_11
REMARK    3  A    between atoms: C_12  and  C_14
REMARK    4  A    between atoms: C_14  and  O_15
REMARK    5  A    between atoms: O_15  and  C_16
REMARK    6  A    between atoms: C_16  and  C_18
REMARK    7  A    between atoms: C_18  and  C_19
REMARK    8  A    between atoms: C_18  and  C_25
REMARK                            x       y       z     vdW  Elec       q    Type
REMARK                         _______ _______ _______ _____ _____    ______ ____
ROOT
ATOM      1  O   UNL     1      35.856   2.435  16.033  0.00  0.00    +0.000 OA
ENDROOT
BRANCH   1   2
ATOM      2  C   UNL     1      36.688   3.465  15.630  0.00  0.00    +0.000 C 
ATOM      3  O   UNL     1      36.210   4.307  14.829  0.00  0.00    +0.000 OA
BRANCH   2   4
ATOM      4  C   UNL     1      38.088   3.616  16.089  0.00  0.00    +0.000 C 
BRANCH   4   5
ATOM      5  C   UNL     1      38.326   4.839  16.863  0.00  0.00    +0.000 A 
ATOM      6  C   UNL     1      38.856   4.726  18.132  0.00  0.00    +0.000 A 
ATOM      7  C   UNL     1      39.086   5.870  18.875  0.00  0.00    +0.000 A 
ATOM      8  C   UNL     1      38.786   7.117  18.351  0.00  0.00    +0.000 A 
ATOM      9  C   UNL     1      38.260   7.197  17.087  0.00  0.00    +0.000 A 
ATOM     10  C   UNL     1      38.028   6.064  16.341  0.00  0.00    +0.000 A 
ENDBRANCH   4   5
BRANCH   4  11
ATOM     11  C   UNL     1      39.052   3.353  15.030  0.00  0.00    +0.000 A 
ATOM     12  C   UNL     1      39.766   4.367  14.438  0.00  0.00    +0.000 A 
ATOM     13  C   UNL     1      40.688   4.101  13.423  0.00  0.00    +0.000 A 
ATOM     14  C   UNL     1      40.894   2.813  13.002  0.00  0.00    +0.000 A 
ATOM     15  C   UNL     1      40.185   1.781  13.588  0.00  0.00    +0.000 A 
ATOM     16  C   UNL     1      39.272   2.066  14.595  0.00  0.00    +0.000 A 
ENDBRANCH   4  11
ENDBRANCH   2   4
ENDBRANCH   1   2
BRANCH   1  17
ATOM     17  C   UNL     1      35.577   1.301  15.265  0.00  0.00    +0.000 C 
BRANCH  17  19
ATOM     18  N   UNL     1      37.186   0.009  16.656  0.00  0.00    +0.000 NA
ATOM     19  C   UNL     1      35.955   0.037  15.945  0.00  0.00    +0.000 C 
ATOM     20  O   UNL     1      35.245  -0.993  15.919  0.00  0.00    +0.000 OA
BRANCH  18  27
ATOM     21  C   UNL     1      36.360  -0.353  19.305  0.00  0.00    +0.000 C 
ATOM     22  C   UNL     1      37.266  -1.336  18.659  0.00  0.00    +0.000 A 
ATOM     23  C   UNL     1      37.740  -2.455  19.310  0.00  0.00    +0.000 A 
ATOM     24  C   UNL     1      38.586  -3.372  18.702  0.00  0.00    +0.000 A 
ATOM     25  C   UNL     1      38.945  -3.119  17.396  0.00  0.00    +0.000 A 
ATOM     26  C   UNL     1      38.503  -2.018  16.696  0.00  0.00    +0.000 A 
ATOM     27  C   UNL     1      37.661  -1.139  17.348  0.00  0.00    +0.000 A 
BRANCH  26  28
ATOM     28  C   UNL     1      38.884  -1.747  15.301  0.00  0.00    +0.000 C 
ATOM     29  C   UNL     1      38.146  -2.685  14.371  0.00  0.00    +0.000 C 
ATOM     30  C   UNL     1      40.353  -1.704  15.060  0.00  0.00    +0.000 C 
ENDBRANCH  26  28
ENDBRANCH  18  27
ENDBRANCH  17  19
ENDBRANCH   1  17
TORSDOF 8
ENDMDL
MODEL 6
REMARK VINA RESULT:      -7.3      2.990      6.279
REMARK  Name = 
REMARK  8 active torsions:
REMARK  status: ('A' for Active; 'I' for Inactive)
REMARK    1  A    between atoms: C_6  and  C_7
REMARK    2  A    between atoms: C_10  and  N_11
REMARK    3  A    between atoms: C_12  and  C_14
REMARK    4  A    between atoms: C_14  and  O_15
REMARK    5  A    between atoms: O_15  and  C_16
REMARK    6  A    between atoms: C_16  and  C_18
REMARK    7  A    between atoms: C_18  and  C_19
REMARK    8  A    between atoms: C_18  and  C_25
REMARK                            x       y       z     vdW  Elec       q    Type
REMARK                         _______ _______ _______ _____ _____    ______ ____
ROOT
ATOM      1  O   UNL     1      39.340   5.214  16.850  0.00  0.00    +0.000 OA
ENDROOT
BRANCH   1   2
ATOM      2  C   UNL     1      39.163   5.100  18.217  0.00  0.00    +0.000 C 
ATOM      3  O   UNL     1      38.512   4.107  18.630  0.00  0.00    +0.000 OA
BRANCH   2   4
ATOM      4  C   UNL     1      39.693   6.076  19.197  0.00  0.00    +0.000 C 
BRANCH   4   5
ATOM      5  C   UNL     1      38.854   7.269  19.356  0.00  0.00    +0.000 A 
ATOM      6  C   UNL     1      38.051   7.656  18.303  0.00  0.00    +0.000 A 
ATOM      7  C   UNL     1      37.254   8.780  18.436  0.00  0.00    +0.000 A 
ATOM      8  C   UNL     1      37.263   9.509  19.614  0.00  0.00    +0.000 A 
ATOM      9  C   UNL     1      38.073   9.098  20.642  0.00  0.00    +0.000 A 
ATOM     10  C   UNL     1      38.868   7.981  20.519  0.00  0.00    +0.000 A 
ENDBRANCH   4   5
BRANCH   4  11
ATOM     11  C   UNL     1      41.114   6.335  19.011  0.00  0.00    +0.000 A 
ATOM     12  C   UNL     1      41.651   6.539  17.763  0.00  0.00    +0.000 A 
ATOM     13  C   UNL     1      43.015   6.787  17.599  0.00  0.00    +0.000 A 
ATOM     14  C   UNL     1      43.843   6.829  18.691  0.00  0.00    +0.000 A 
ATOM     15  C   UNL     1      43.319   6.626  19.953  0.00  0.00    +0.000 A 
ATOM     16  C   UNL     1      41.959   6.381  20.096  0.00  0.00    +0.000 A 
ENDBRANCH   4  11
ENDBRANCH   2   4
ENDBRANCH   1   2
BRANCH   1  17
ATOM     17  C   UNL     1      38.313   5.484  15.941  0.00  0.00    +0.000 C 
BRANCH  17  19
ATOM     18  N   UNL     1      38.144   3.017  15.667  0.00  0.00    +0.000 NA
ATOM     19  C   UNL     1      37.956   4.310  15.107  0.00  0.00    +0.000 C 
ATOM     20  O   UNL     1      37.500   4.409  13.946  0.00  0.00    +0.000 OA
BRANCH  18  27
ATOM     21  C   UNL     1      40.151   1.881  14.083  0.00  0.00    +0.000 C 
ATOM     22  C   UNL     1      38.818   1.236  14.184  0.00  0.00    +0.000 A 
ATOM     23  C   UNL     1      38.501   0.070  13.519  0.00  0.00    +0.000 A 
ATOM     24  C   UNL     1      37.253  -0.529  13.615  0.00  0.00    +0.000 A 
ATOM     25  C   UNL     1      36.321   0.095  14.416  0.00  0.00    +0.000 A 
ATOM     26  C   UNL     1      36.581   1.260  15.103  0.00  0.00    +0.000 A 
ATOM     27  C   UNL     1      37.840   1.814  14.973  0.00  0.00    +0.000 A 
BRANCH  26  28
ATOM     28  C   UNL     1      35.588   1.927  15.959  0.00  0.00    +0.000 C 
ATOM     29  C   UNL     1      34.960   0.924  16.901  0.00  0.00    +0.000 C 
ATOM     30  C   UNL     1      34.593   2.755  15.221  0.00  0.00    +0.000 C 
ENDBRANCH  26  28
ENDBRANCH  18  27
ENDBRANCH  17  19
ENDBRANCH   1  17
TORSDOF 8
ENDMDL
MODEL 7
REMARK VINA RESULT:      -7.1      2.398      5.925
REMARK  Name = 
REMARK  8 active torsions:
REMARK  status: ('A' for Active; 'I' for Inactive)
REMARK    1  A    between atoms: C_6  and  C_7
REMARK    2  A    between atoms: C_10  and  N_11
REMARK    3  A    between atoms: C_12  and  C_14
REMARK    4  A    between atoms: C_14  and  O_15
REMARK    5  A    between atoms: O_15  and  C_16
REMARK    6  A    between atoms: C_16  and  C_18
REMARK    7  A    between atoms: C_18  and  C_19
REMARK    8  A    between atoms: C_18  and  C_25
REMARK                            x       y       z     vdW  Elec       q    Type
REMARK                         _______ _______ _______ _____ _____    ______ ____
ROOT
ATOM      1  O   UNL     1      38.147   4.917  16.681  0.00  0.00    +0.000 OA
ENDROOT
BRANCH   1   2
ATOM      2  C   UNL     1      38.672   4.799  17.955  0.00  0.00    +0.000 C 
ATOM      3  O   UNL     1      38.340   3.785  18.620  0.00  0.00    +0.000 OA
BRANCH   2   4
ATOM      4  C   UNL     1      39.588   5.792  18.560  0.00  0.00    +0.000 C 
BRANCH   4   5
ATOM      5  C   UNL     1      38.902   6.952  19.140  0.00  0.00    +0.000 A 
ATOM      6  C   UNL     1      37.869   7.531  18.432  0.00  0.00    +0.000 A 
ATOM      7  C   UNL     1      37.213   8.626  18.965  0.00  0.00    +0.000 A 
ATOM      8  C   UNL     1      37.588   9.136  20.197  0.00  0.00    +0.000 A 
ATOM      9  C   UNL     1      38.619   8.538  20.877  0.00  0.00    +0.000 A 
ATOM     10  C   UNL     1      39.277   7.449  20.355  0.00  0.00    +0.000 A 
ENDBRANCH   4   5
BRANCH   4  11
ATOM     11  C   UNL     1      40.718   6.106  17.696  0.00  0.00    +0.000 A 
ATOM     12  C   UNL     1      40.606   6.077  16.327  0.00  0.00    +0.000 A 
ATOM     13  C   UNL     1      41.697   6.380  15.509  0.00  0.00    +0.000 A 
ATOM     14  C   UNL     1      42.903   6.714  16.069  0.00  0.00    +0.000 A 
ATOM     15  C   UNL     1      43.032   6.749  17.444  0.00  0.00    +0.000 A 
ATOM     16  C   UNL     1      41.936   6.444  18.240  0.00  0.00    +0.000 A 
ENDBRANCH   4  11
ENDBRANCH   2   4
ENDBRANCH   1   2
BRANCH   1  17
ATOM     17  C   UNL     1      37.163   4.076  16.153  0.00  0.00    +0.000 C 
BRANCH  17  19
ATOM     18  N   UNL     1      38.820   2.438  15.279  0.00  0.00    +0.000 NA
ATOM     19  C   UNL     1      37.663   3.229  15.041  0.00  0.00    +0.000 C 
ATOM     20  O   UNL     1      37.116   3.182  13.917  0.00  0.00    +0.000 OA
BRANCH  18  27
ATOM     21  C   UNL     1      40.598   3.577  13.442  0.00  0.00    +0.000 C 
ATOM     22  C   UNL     1      40.278   2.128  13.380  0.00  0.00    +0.000 A 
ATOM     23  C   UNL     1      40.826   1.283  12.438  0.00  0.00    +0.000 A 
ATOM     24  C   UNL     1      40.524  -0.071  12.384  0.00  0.00    +0.000 A 
ATOM     25  C   UNL     1      39.640  -0.551  13.325  0.00  0.00    +0.000 A 
ATOM     26  C   UNL     1      39.062   0.246  14.289  0.00  0.00    +0.000 A 
ATOM     27  C   UNL     1      39.398   1.586  14.298  0.00  0.00    +0.000 A 
BRANCH  26  28
ATOM     28  C   UNL     1      38.118  -0.266  15.294  0.00  0.00    +0.000 C 
ATOM     29  C   UNL     1      38.731  -1.436  16.031  0.00  0.00    +0.000 C 
ATOM     30  C   UNL     1      36.750  -0.541  14.773  0.00  0.00    +0.000 C 
ENDBRANCH  26  28
ENDBRANCH  18  27
ENDBRANCH  17  19
ENDBRANCH   1  17
TORSDOF 8
ENDMDL
MODEL 8
REMARK VINA RESULT:      -7.1      2.016      4.488
REMARK  Name = 
REMARK  8 active torsions:
REMARK  status: ('A' for Active; 'I' for Inactive)
REMARK    1  A    between atoms: C_6  and  C_7
REMARK    2  A    between atoms: C_10  and  N_11
REMARK    3  A    between atoms: C_12  and  C_14
REMARK    4  A    between atoms: C_14  and  O_15
REMARK    5  A    between atoms: O_15  and  C_16
REMARK    6  A    between atoms: C_16  and  C_18
REMARK    7  A    between atoms: C_18  and  C_19
REMARK    8  A    between atoms: C_18  and  C_25
REMARK                            x       y       z     vdW  Elec       q    Type
REMARK                         _______ _______ _______ _____ _____    ______ ____
ROOT
ATOM      1  O   UNL     1      38.888   2.711  15.387  0.00  0.00    +0.000 OA
ENDROOT
BRANCH   1   2
ATOM      2  C   UNL     1      38.436   3.785  16.134  0.00  0.00    +0.000 C 
ATOM      3  O   UNL     1      37.548   3.552  16.993  0.00  0.00    +0.000 OA
BRANCH   2   4
ATOM      4  C   UNL     1      38.940   5.168  15.972  0.00  0.00    +0.000 C 
BRANCH   4   5
ATOM      5  C   UNL     1      39.737   5.642  17.108  0.00  0.00    +0.000 A 
ATOM      6  C   UNL     1      39.178   5.606  18.369  0.00  0.00    +0.000 A 
ATOM      7  C   UNL     1      39.917   6.051  19.451  0.00  0.00    +0.000 A 
ATOM      8  C   UNL     1      41.205   6.528  19.270  0.00  0.00    +0.000 A 
ATOM      9  C   UNL     1      41.733   6.551  18.004  0.00  0.00    +0.000 A 
ATOM     10  C   UNL     1      41.005   6.110  16.923  0.00  0.00    +0.000 A 
ENDBRANCH   4   5
BRANCH   4  11
ATOM     11  C   UNL     1      37.907   6.085  15.511  0.00  0.00    +0.000 A 
ATOM     12  C   UNL     1      37.837   7.379  15.969  0.00  0.00    +0.000 A 
ATOM     13  C   UNL     1      36.842   8.249  15.519  0.00  0.00    +0.000 A 
ATOM     14  C   UNL     1      35.913   7.818  14.607  0.00  0.00    +0.000 A 
ATOM     15  C   UNL     1      35.970   6.520  14.136  0.00  0.00    +0.000 A 
ATOM     16  C   UNL     1      36.968   5.670  14.595  0.00  0.00    +0.000 A 
ENDBRANCH   4  11
ENDBRANCH   2   4
ENDBRANCH   1   2
BRANCH   1  17
ATOM     17  C   UNL     1      38.178   2.129  14.334  0.00  0.00    +0.000 C 
BRANCH  17  19
ATOM     18  N   UNL     1      38.277   0.098  15.769  0.00  0.00    +0.000 NA
ATOM     19  C   UNL     1      37.708   0.755  14.643  0.00  0.00    +0.000 C 
ATOM     20  O   UNL     1      36.843   0.159  13.965  0.00  0.00    +0.000 OA
BRANCH  18  27
ATOM     21  C   UNL     1      39.760  -2.040  14.740  0.00  0.00    +0.000 C 
ATOM     22  C   UNL     1      38.632  -2.287  15.674  0.00  0.00    +0.000 A 
ATOM     23  C   UNL     1      38.261  -3.553  16.077  0.00  0.00    +0.000 A 
ATOM     24  C   UNL     1      37.206  -3.780  16.950  0.00  0.00    +0.000 A 
ATOM     25  C   UNL     1      36.528  -2.672  17.410  0.00  0.00    +0.000 A 
ATOM     26  C   UNL     1      36.854  -1.385  17.041  0.00  0.00    +0.000 A 
ATOM     27  C   UNL     1      37.913  -1.216  16.171  0.00  0.00    +0.000 A 
BRANCH  26  28
ATOM     28  C   UNL     1      36.131  -0.202  17.532  0.00  0.00    +0.000 C 
ATOM     29  C   UNL     1      36.093  -0.209  19.044  0.00  0.00    +0.000 C 
ATOM     30  C   UNL     1      34.797   0.012  16.904  0.00  0.00    +0.000 C 
ENDBRANCH  26  28
ENDBRANCH  18  27
ENDBRANCH  17  19
ENDBRANCH   1  17
TORSDOF 8
ENDMDL
MODEL 9
REMARK VINA RESULT:      -7.0      2.116      4.569
REMARK  Name = 
REMARK  8 active torsions:
REMARK  status: ('A' for Active; 'I' for Inactive)
REMARK    1  A    between atoms: C_6  and  C_7
REMARK    2  A    between atoms: C_10  and  N_11
REMARK    3  A    between atoms: C_12  and  C_14
REMARK    4  A    between atoms: C_14  and  O_15
REMARK    5  A    between atoms: O_15  and  C_16
REMARK    6  A    between atoms: C_16  and  C_18
REMARK    7  A    between atoms: C_18  and  C_19
REMARK    8  A    between atoms: C_18  and  C_25
REMARK                            x       y       z     vdW  Elec       q    Type
REMARK                         _______ _______ _______ _____ _____    ______ ____
ROOT
ATOM      1  O   UNL     1      38.841   3.094  15.680  0.00  0.00    +0.000 OA
ENDROOT
BRANCH   1   2
ATOM      2  C   UNL     1      38.493   4.141  16.515  0.00  0.00    +0.000 C 
ATOM      3  O   UNL     1      37.581   3.926  17.353  0.00  0.00    +0.000 OA
BRANCH   2   4
ATOM      4  C   UNL     1      39.132   5.476  16.468  0.00  0.00    +0.000 C 
BRANCH   4   5
ATOM      5  C   UNL     1      39.176   6.155  17.767  0.00  0.00    +0.000 A 
ATOM      6  C   UNL     1      40.170   5.811  18.660  0.00  0.00    +0.000 A 
ATOM      7  C   UNL     1      40.225   6.442  19.890  0.00  0.00    +0.000 A 
ATOM      8  C   UNL     1      39.291   7.410  20.223  0.00  0.00    +0.000 A 
ATOM      9  C   UNL     1      38.314   7.730  19.314  0.00  0.00    +0.000 A 
ATOM     10  C   UNL     1      38.253   7.108  18.088  0.00  0.00    +0.000 A 
ENDBRANCH   4   5
BRANCH   4  11
ATOM     11  C   UNL     1      38.647   6.286  15.359  0.00  0.00    +0.000 A 
ATOM     12  C   UNL     1      39.488   7.104  14.644  0.00  0.00    +0.000 A 
ATOM     13  C   UNL     1      39.010   7.876  13.583  0.00  0.00    +0.000 A 
ATOM     14  C   UNL     1      37.684   7.826  13.239  0.00  0.00    +0.000 A 
ATOM     15  C   UNL     1      36.825   7.007  13.947  0.00  0.00    +0.000 A 
ATOM     16  C   UNL     1      37.319   6.248  15.000  0.00  0.00    +0.000 A 
ENDBRANCH   4  11
ENDBRANCH   2   4
ENDBRANCH   1   2
BRANCH   1  17
ATOM     17  C   UNL     1      38.158   2.760  14.508  0.00  0.00    +0.000 C 
BRANCH  17  19
ATOM     18  N   UNL     1      37.359   0.853  15.893  0.00  0.00    +0.000 NA
ATOM     19  C   UNL     1      37.286   1.569  14.667  0.00  0.00    +0.000 C 
ATOM     20  O   UNL     1      36.500   1.173  13.779  0.00  0.00    +0.000 OA
BRANCH  18  27
ATOM     21  C   UNL     1      34.846   1.227  17.066  0.00  0.00    +0.000 C 
ATOM     22  C   UNL     1      35.333  -0.140  16.750  0.00  0.00    +0.000 A 
ATOM     23  C   UNL     1      34.593  -1.274  17.010  0.00  0.00    +0.000 A 
ATOM     24  C   UNL     1      35.052  -2.550  16.714  0.00  0.00    +0.000 A 
ATOM     25  C   UNL     1      36.300  -2.646  16.137  0.00  0.00    +0.000 A 
ATOM     26  C   UNL     1      37.083  -1.548  15.855  0.00  0.00    +0.000 A 
ATOM     27  C   UNL     1      36.578  -0.302  16.170  0.00  0.00    +0.000 A 
BRANCH  26  28
ATOM     28  C   UNL     1      38.416  -1.649  15.240  0.00  0.00    +0.000 C 
ATOM     29  C   UNL     1      38.290  -2.126  13.810  0.00  0.00    +0.000 C 
ATOM     30  C   UNL     1      39.409  -2.419  16.039  0.00  0.00    +0.000 C 
ENDBRANCH  26  28
ENDBRANCH  18  27
ENDBRANCH  17  19
ENDBRANCH   1  17
TORSDOF 8
ENDMDL
MODEL 10
REMARK VINA RESULT:      -7.0      3.175      6.621
REMARK  Name = 
REMARK  8 active torsions:
REMARK  status: ('A' for Active; 'I' for Inactive)
REMARK    1  A    between atoms: C_6  and  C_7
REMARK    2  A    between atoms: C_10  and  N_11
REMARK    3  A    between atoms: C_12  and  C_14
REMARK    4  A    between atoms: C_14  and  O_15
REMARK    5  A    between atoms: O_15  and  C_16
REMARK    6  A    between atoms: C_16  and  C_18
REMARK    7  A    between atoms: C_18  and  C_19
REMARK    8  A    between atoms: C_18  and  C_25
REMARK                            x       y       z     vdW  Elec       q    Type
REMARK                         _______ _______ _______ _____ _____    ______ ____
ROOT
ATOM      1  O   UNL     1      38.709  -0.994  16.172  0.00  0.00    +0.000 OA
ENDROOT
BRANCH   1   2
ATOM      2  C   UNL     1      37.729  -1.395  17.063  0.00  0.00    +0.000 C 
ATOM      3  O   UNL     1      38.112  -1.839  18.174  0.00  0.00    +0.000 OA
BRANCH   2   4
ATOM      4  C   UNL     1      36.279  -1.328  16.772  0.00  0.00    +0.000 C 
BRANCH   4   5
ATOM      5  C   UNL     1      35.768  -2.495  16.045  0.00  0.00    +0.000 A 
ATOM      6  C   UNL     1      34.426  -2.802  16.147  0.00  0.00    +0.000 A 
ATOM      7  C   UNL     1      33.929  -3.900  15.468  0.00  0.00    +0.000 A 
ATOM      8  C   UNL     1      34.768  -4.683  14.692  0.00  0.00    +0.000 A 
ATOM      9  C   UNL     1      36.097  -4.351  14.610  0.00  0.00    +0.000 A 
ATOM     10  C   UNL     1      36.600  -3.261  15.282  0.00  0.00    +0.000 A 
ENDBRANCH   4   5
BRANCH   4  11
ATOM     11  C   UNL     1      35.878  -0.035  16.233  0.00  0.00    +0.000 A 
ATOM     12  C   UNL     1      36.128   0.309  14.927  0.00  0.00    +0.000 A 
ATOM     13  C   UNL     1      35.739   1.551  14.423  0.00  0.00    +0.000 A 
ATOM     14  C   UNL     1      35.098   2.452  15.234  0.00  0.00    +0.000 A 
ATOM     15  C   UNL     1      34.838   2.121  16.550  0.00  0.00    +0.000 A 
ATOM     16  C   UNL     1      35.233   0.880  17.033  0.00  0.00    +0.000 A 
ENDBRANCH   4  11
ENDBRANCH   2   4
ENDBRANCH   1   2
BRANCH   1  17
ATOM     17  C   UNL     1      39.713  -1.829  15.675  0.00  0.00    +0.000 C 
BRANCH  17  19
ATOM     18  N   UNL     1      39.479  -1.846  13.198  0.00  0.00    +0.000 NA
ATOM     19  C   UNL     1      40.205  -1.409  14.339  0.00  0.00    +0.000 C 
ATOM     20  O   UNL     1      41.219  -0.695  14.178  0.00  0.00    +0.000 OA
BRANCH  18  27
ATOM     21  C   UNL     1      41.221  -3.573  11.851  0.00  0.00    +0.000 C 
ATOM     22  C   UNL     1      40.707  -2.352  11.182  0.00  0.00    +0.000 A 
ATOM     23  C   UNL     1      41.049  -2.008   9.891  0.00  0.00    +0.000 A 
ATOM     24  C   UNL     1      40.566  -0.866   9.269  0.00  0.00    +0.000 A 
ATOM     25  C   UNL     1      39.713  -0.070  10.002  0.00  0.00    +0.000 A 
ATOM     26  C   UNL     1      39.336  -0.362  11.294  0.00  0.00    +0.000 A 
ATOM     27  C   UNL     1      39.846  -1.512  11.865  0.00  0.00    +0.000 A 
BRANCH  26  28
ATOM     28  C   UNL     1      38.426   0.487  12.078  0.00  0.00    +0.000 C 
ATOM     29  C   UNL     1      37.181   0.789  11.274  0.00  0.00    +0.000 C 
ATOM     30  C   UNL     1      39.063   1.697  12.667  0.00  0.00    +0.000 C 
ENDBRANCH  26  28
ENDBRANCH  18  27
ENDBRANCH  17  19
ENDBRANCH   1  17
TORSDOF 8
ENDMDL
