MODEL 1
REMARK VINA RESULT:      -7.7      0.000      0.000
REMARK  Name = 
REMARK  3 active torsions:
REMARK  status: ('A' for Active; 'I' for Inactive)
REMARK    1  A    between atoms: C_7  and  N_8
REMARK    2  A    between atoms: C_9  and  C_11
REMARK    3  A    between atoms: C_15  and  N_16
REMARK                            x       y       z     vdW  Elec       q    Type
REMARK                         _______ _______ _______ _____ _____    ______ ____
ROOT
ATOM      1  N   UNL     1      15.724  11.209  35.477  0.00  0.00    +0.000 NA
ATOM      2  C   UNL     1      16.747  11.687  36.325  0.00  0.00    +0.000 C 
ATOM      3  O   UNL     1      17.108  12.924  36.282  0.00  0.00    +0.000 OA
ENDROOT
BRANCH   1  10
ATOM      4  C   UNL     1      14.801  12.526  30.819  0.00  0.00    +0.000 C 
ATOM      5  C   UNL     1      14.613  12.747  32.271  0.00  0.00    +0.000 A 
ATOM      6  C   UNL     1      13.836  13.784  32.745  0.00  0.00    +0.000 A 
ATOM      7  C   UNL     1      13.688  13.971  34.120  0.00  0.00    +0.000 A 
ATOM      8  C   UNL     1      12.844  15.102  34.561  0.00  0.00    +0.000 C 
ATOM      9  C   UNL     1      14.306  13.140  35.016  0.00  0.00    +0.000 A 
ATOM     10  C   UNL     1      15.084  12.099  34.563  0.00  0.00    +0.000 A 
ATOM     11  C   UNL     1      15.221  11.927  33.203  0.00  0.00    +0.000 A 
ENDBRANCH   1  10
BRANCH   2  12
ATOM     12  C   UNL     1      17.396  10.776  37.256  0.00  0.00    +0.000 A 
ATOM     13  C   UNL     1      18.673  10.296  37.013  0.00  0.00    +0.000 A 
ATOM     14  C   UNL     1      19.305   9.455  37.912  0.00  0.00    +0.000 A 
ATOM     15  C   UNL     1      18.653   9.092  39.061  0.00  0.00    +0.000 A 
ATOM     16  C   UNL     1      17.363   9.546  39.361  0.00  0.00    +0.000 A 
ATOM     17  C   UNL     1      16.778  10.373  38.442  0.00  0.00    +0.000 A 
ATOM     18  C   UNL     1      15.418  10.866  38.735  0.00  0.00    +0.000 C 
BRANCH  16  19
ATOM     19  N   UNL     1      16.726   9.128  40.563  0.00  0.00    +0.000 N 
ATOM     20  O   UNL     1      16.249   7.982  40.676  0.00  0.00    +0.000 OA
ATOM     21  O   UNL     1      16.590   9.940  41.654  0.00  0.00    +0.000 OA
ENDBRANCH  16  19
ENDBRANCH   2  12
TORSDOF 3
ENDMDL
MODEL 2
REMARK VINA RESULT:      -7.4      0.263      1.865
REMARK  Name = 
REMARK  3 active torsions:
REMARK  status: ('A' for Active; 'I' for Inactive)
REMARK    1  A    between atoms: C_7  and  N_8
REMARK    2  A    between atoms: C_9  and  C_11
REMARK    3  A    between atoms: C_15  and  N_16
REMARK                            x       y       z     vdW  Elec       q    Type
REMARK                         _______ _______ _______ _____ _____    ______ ____
ROOT
ATOM      1  N   UNL     1      15.951  11.135  35.453  0.00  0.00    +0.000 NA
ATOM      2  C   UNL     1      16.944  11.665  36.305  0.00  0.00    +0.000 C 
ATOM      3  O   UNL     1      17.232  12.922  36.272  0.00  0.00    +0.000 OA
ENDROOT
BRANCH   1  10
ATOM      4  C   UNL     1      12.911  14.947  34.737  0.00  0.00    +0.000 C 
ATOM      5  C   UNL     1      13.774  13.879  34.184  0.00  0.00    +0.000 A 
ATOM      6  C   UNL     1      13.921  13.708  32.822  0.00  0.00    +0.000 A 
ATOM      7  C   UNL     1      14.734  12.685  32.333  0.00  0.00    +0.000 A 
ATOM      8  C   UNL     1      14.846  12.554  30.865  0.00  0.00    +0.000 C 
ATOM      9  C   UNL     1      15.393  11.837  33.185  0.00  0.00    +0.000 A 
ATOM     10  C   UNL     1      15.261  11.993  34.546  0.00  0.00    +0.000 A 
ATOM     11  C   UNL     1      14.454  13.008  35.014  0.00  0.00    +0.000 A 
ENDBRANCH   1  10
BRANCH   2  12
ATOM     12  C   UNL     1      17.645  10.786  37.229  0.00  0.00    +0.000 A 
ATOM     13  C   UNL     1      18.938  10.362  36.970  0.00  0.00    +0.000 A 
ATOM     14  C   UNL     1      19.619   9.552  37.862  0.00  0.00    +0.000 A 
ATOM     15  C   UNL     1      19.000   9.165  39.021  0.00  0.00    +0.000 A 
ATOM     16  C   UNL     1      17.695   9.563  39.338  0.00  0.00    +0.000 A 
ATOM     17  C   UNL     1      17.062  10.361  38.425  0.00  0.00    +0.000 A 
ATOM     18  C   UNL     1      15.686  10.795  38.735  0.00  0.00    +0.000 C 
BRANCH  16  19
ATOM     19  N   UNL     1      17.093   9.121  40.549  0.00  0.00    +0.000 N 
ATOM     20  O   UNL     1      16.572   7.993  40.638  0.00  0.00    +0.000 OA
ATOM     21  O   UNL     1      17.041   9.891  41.678  0.00  0.00    +0.000 OA
ENDBRANCH  16  19
ENDBRANCH   2  12
TORSDOF 3
ENDMDL
MODEL 3
REMARK VINA RESULT:      -7.3      2.356      7.388
REMARK  Name = 
REMARK  3 active torsions:
REMARK  status: ('A' for Active; 'I' for Inactive)
REMARK    1  A    between atoms: C_7  and  N_8
REMARK    2  A    between atoms: C_9  and  C_11
REMARK    3  A    between atoms: C_15  and  N_16
REMARK                            x       y       z     vdW  Elec       q    Type
REMARK                         _______ _______ _______ _____ _____    ______ ____
ROOT
ATOM      1  N   UNL     1      15.934  10.950  36.167  0.00  0.00    +0.000 NA
ATOM      2  C   UNL     1      15.850  12.334  35.901  0.00  0.00    +0.000 C 
ATOM      3  O   UNL     1      16.430  13.187  36.675  0.00  0.00    +0.000 OA
ENDROOT
BRANCH   1  10
ATOM      4  C   UNL     1      20.241   9.612  38.155  0.00  0.00    +0.000 C 
ATOM      5  C   UNL     1      18.785   9.840  38.294  0.00  0.00    +0.000 A 
ATOM      6  C   UNL     1      18.134   9.619  39.492  0.00  0.00    +0.000 A 
ATOM      7  C   UNL     1      16.759   9.834  39.587  0.00  0.00    +0.000 A 
ATOM      8  C   UNL     1      16.124   9.576  40.896  0.00  0.00    +0.000 C 
ATOM      9  C   UNL     1      16.034  10.261  38.505  0.00  0.00    +0.000 A 
ATOM     10  C   UNL     1      16.665  10.488  37.303  0.00  0.00    +0.000 A 
ATOM     11  C   UNL     1      18.023  10.271  37.225  0.00  0.00    +0.000 A 
ENDBRANCH   1  10
BRANCH   2  12
ATOM     12  C   UNL     1      15.105  12.801  34.741  0.00  0.00    +0.000 A 
ATOM     13  C   UNL     1      14.078  13.720  34.874  0.00  0.00    +0.000 A 
ATOM     14  C   UNL     1      13.388  14.190  33.770  0.00  0.00    +0.000 A 
ATOM     15  C   UNL     1      13.730  13.734  32.524  0.00  0.00    +0.000 A 
ATOM     16  C   UNL     1      14.760  12.806  32.327  0.00  0.00    +0.000 A 
ATOM     17  C   UNL     1      15.411  12.370  33.448  0.00  0.00    +0.000 A 
ATOM     18  C   UNL     1      16.501  11.391  33.267  0.00  0.00    +0.000 C 
BRANCH  16  19
ATOM     19  N   UNL     1      15.067  12.356  31.012  0.00  0.00    +0.000 N 
ATOM     20  O   UNL     1      14.469  11.387  30.505  0.00  0.00    +0.000 OA
ATOM     21  O   UNL     1      16.024  12.939  30.230  0.00  0.00    +0.000 OA
ENDBRANCH  16  19
ENDBRANCH   2  12
TORSDOF 3
ENDMDL
MODEL 4
REMARK VINA RESULT:      -7.0      2.305      7.548
REMARK  Name = 
REMARK  3 active torsions:
REMARK  status: ('A' for Active; 'I' for Inactive)
REMARK    1  A    between atoms: C_7  and  N_8
REMARK    2  A    between atoms: C_9  and  C_11
REMARK    3  A    between atoms: C_15  and  N_16
REMARK                            x       y       z     vdW  Elec       q    Type
REMARK                         _______ _______ _______ _____ _____    ______ ____
ROOT
ATOM      1  N   UNL     1      16.522  10.443  37.006  0.00  0.00    +0.000 NA
ATOM      2  C   UNL     1      16.522  11.783  36.562  0.00  0.00    +0.000 C 
ATOM      3  O   UNL     1      17.178  12.687  37.207  0.00  0.00    +0.000 OA
ENDROOT
BRANCH   1  10
ATOM      4  C   UNL     1      16.513   9.424  41.828  0.00  0.00    +0.000 C 
ATOM      5  C   UNL     1      17.252   9.567  40.553  0.00  0.00    +0.000 A 
ATOM      6  C   UNL     1      18.615   9.357  40.485  0.00  0.00    +0.000 A 
ATOM      7  C   UNL     1      19.283   9.510  39.270  0.00  0.00    +0.000 A 
ATOM      8  C   UNL     1      20.742   9.272  39.266  0.00  0.00    +0.000 C 
ATOM      9  C   UNL     1      18.608   9.871  38.133  0.00  0.00    +0.000 A 
ATOM     10  C   UNL     1      17.250  10.084  38.181  0.00  0.00    +0.000 A 
ATOM     11  C   UNL     1      16.603   9.929  39.388  0.00  0.00    +0.000 A 
ENDBRANCH   1  10
BRANCH   2  12
ATOM     12  C   UNL     1      15.779  12.145  35.363  0.00  0.00    +0.000 A 
ATOM     13  C   UNL     1      14.665  12.965  35.434  0.00  0.00    +0.000 A 
ATOM     14  C   UNL     1      13.975  13.336  34.294  0.00  0.00    +0.000 A 
ATOM     15  C   UNL     1      14.405  12.883  33.074  0.00  0.00    +0.000 A 
ATOM     16  C   UNL     1      15.525  12.054  32.940  0.00  0.00    +0.000 A 
ATOM     17  C   UNL     1      16.173  11.712  34.095  0.00  0.00    +0.000 A 
ATOM     18  C   UNL     1      17.358  10.839  33.981  0.00  0.00    +0.000 C 
BRANCH  16  19
ATOM     19  N   UNL     1      15.922  11.601  31.651  0.00  0.00    +0.000 N 
ATOM     20  O   UNL     1      16.343  12.396  30.789  0.00  0.00    +0.000 OA
ATOM     21  O   UNL     1      15.864  10.289  31.272  0.00  0.00    +0.000 OA
ENDBRANCH  16  19
ENDBRANCH   2  12
TORSDOF 3
ENDMDL
MODEL 5
REMARK VINA RESULT:      -6.9      2.959      7.606
REMARK  Name = 
REMARK  3 active torsions:
REMARK  status: ('A' for Active; 'I' for Inactive)
REMARK    1  A    between atoms: C_7  and  N_8
REMARK    2  A    between atoms: C_9  and  C_11
REMARK    3  A    between atoms: C_15  and  N_16
REMARK                            x       y       z     vdW  Elec       q    Type
REMARK                         _______ _______ _______ _____ _____    ______ ____
ROOT
ATOM      1  N   UNL     1      19.280  10.950  37.263  0.00  0.00    +0.000 NA
ATOM      2  C   UNL     1      18.150  10.152  36.985  0.00  0.00    +0.000 C 
ATOM      3  O   UNL     1      18.185   8.877  37.178  0.00  0.00    +0.000 OA
ENDROOT
BRANCH   1  10
ATOM      4  C   UNL     1      23.737   9.049  36.364  0.00  0.00    +0.000 C 
ATOM      5  C   UNL     1      22.676   9.419  37.327  0.00  0.00    +0.000 A 
ATOM      6  C   UNL     1      22.825   9.193  38.681  0.00  0.00    +0.000 A 
ATOM      7  C   UNL     1      21.801   9.544  39.562  0.00  0.00    +0.000 A 
ATOM      8  C   UNL     1      22.023   9.273  40.998  0.00  0.00    +0.000 C 
ATOM      9  C   UNL     1      20.640  10.111  39.106  0.00  0.00    +0.000 A 
ATOM     10  C   UNL     1      20.473  10.345  37.761  0.00  0.00    +0.000 A 
ATOM     11  C   UNL     1      21.493   9.993  36.903  0.00  0.00    +0.000 A 
ENDBRANCH   1  10
BRANCH   2  12
ATOM     12  C   UNL     1      16.935  10.773  36.479  0.00  0.00    +0.000 A 
ATOM     13  C   UNL     1      16.053  11.417  37.331  0.00  0.00    +0.000 A 
ATOM     14  C   UNL     1      14.913  12.035  36.849  0.00  0.00    +0.000 A 
ATOM     15  C   UNL     1      14.654  12.008  35.504  0.00  0.00    +0.000 A 
ATOM     16  C   UNL     1      15.509  11.373  34.594  0.00  0.00    +0.000 A 
ATOM     17  C   UNL     1      16.622  10.775  35.117  0.00  0.00    +0.000 A 
ATOM     18  C   UNL     1      17.540  10.100  34.179  0.00  0.00    +0.000 C 
BRANCH  16  19
ATOM     19  N   UNL     1      15.187  11.363  33.208  0.00  0.00    +0.000 N 
ATOM     20  O   UNL     1      15.398  12.359  32.489  0.00  0.00    +0.000 OA
ATOM     21  O   UNL     1      14.630  10.284  32.581  0.00  0.00    +0.000 OA
ENDBRANCH  16  19
ENDBRANCH   2  12
TORSDOF 3
ENDMDL
MODEL 6
REMARK VINA RESULT:      -6.4     19.595     21.973
REMARK  Name = 
REMARK  3 active torsions:
REMARK  status: ('A' for Active; 'I' for Inactive)
REMARK    1  A    between atoms: C_7  and  N_8
REMARK    2  A    between atoms: C_9  and  C_11
REMARK    3  A    between atoms: C_15  and  N_16
REMARK                            x       y       z     vdW  Elec       q    Type
REMARK                         _______ _______ _______ _____ _____    ______ ____
ROOT
ATOM      1  N   UNL     1      34.280  -0.871  34.258  0.00  0.00    +0.000 NA
ATOM      2  C   UNL     1      33.238   0.038  34.538  0.00  0.00    +0.000 C 
ATOM      3  O   UNL     1      32.053  -0.389  34.815  0.00  0.00    +0.000 OA
ENDROOT
BRANCH   1  10
ATOM      4  C   UNL     1      33.160  -4.990  31.794  0.00  0.00    +0.000 C 
ATOM      5  C   UNL     1      33.486  -4.311  33.069  0.00  0.00    +0.000 A 
ATOM      6  C   UNL     1      33.547  -5.009  34.259  0.00  0.00    +0.000 A 
ATOM      7  C   UNL     1      33.847  -4.338  35.445  0.00  0.00    +0.000 A 
ATOM      8  C   UNL     1      33.895  -5.143  36.683  0.00  0.00    +0.000 C 
ATOM      9  C   UNL     1      34.079  -2.987  35.453  0.00  0.00    +0.000 A 
ATOM     10  C   UNL     1      34.024  -2.275  34.277  0.00  0.00    +0.000 A 
ATOM     11  C   UNL     1      33.727  -2.952  33.114  0.00  0.00    +0.000 A 
ENDBRANCH   1  10
BRANCH   2  12
ATOM     12  C   UNL     1      33.503   1.469  34.517  0.00  0.00    +0.000 A 
ATOM     13  C   UNL     1      33.372   2.204  33.350  0.00  0.00    +0.000 A 
ATOM     14  C   UNL     1      33.594   3.569  33.334  0.00  0.00    +0.000 A 
ATOM     15  C   UNL     1      33.950   4.204  34.496  0.00  0.00    +0.000 A 
ATOM     16  C   UNL     1      34.096   3.514  35.706  0.00  0.00    +0.000 A 
ATOM     17  C   UNL     1      33.869   2.166  35.671  0.00  0.00    +0.000 A 
ATOM     18  C   UNL     1      34.016   1.416  36.934  0.00  0.00    +0.000 C 
BRANCH  16  19
ATOM     19  N   UNL     1      34.480   4.219  36.881  0.00  0.00    +0.000 N 
ATOM     20  O   UNL     1      33.631   4.749  37.622  0.00  0.00    +0.000 OA
ATOM     21  O   UNL     1      35.783   4.366  37.268  0.00  0.00    +0.000 OA
ENDBRANCH  16  19
ENDBRANCH   2  12
TORSDOF 3
ENDMDL
MODEL 7
REMARK VINA RESULT:      -6.4      3.002      7.520
REMARK  Name = 
REMARK  3 active torsions:
REMARK  status: ('A' for Active; 'I' for Inactive)
REMARK    1  A    between atoms: C_7  and  N_8
REMARK    2  A    between atoms: C_9  and  C_11
REMARK    3  A    between atoms: C_15  and  N_16
REMARK                            x       y       z     vdW  Elec       q    Type
REMARK                         _______ _______ _______ _____ _____    ______ ____
ROOT
ATOM      1  N   UNL     1      18.989   9.867  37.395  0.00  0.00    +0.000 NA
ATOM      2  C   UNL     1      18.356  11.090  37.707  0.00  0.00    +0.000 C 
ATOM      3  O   UNL     1      19.030  12.065  38.216  0.00  0.00    +0.000 OA
ENDROOT
BRANCH   1  10
ATOM      4  C   UNL     1      22.612   8.859  40.580  0.00  0.00    +0.000 C 
ATOM      5  C   UNL     1      22.174   9.195  39.207  0.00  0.00    +0.000 A 
ATOM      6  C   UNL     1      23.085   9.348  38.180  0.00  0.00    +0.000 A 
ATOM      7  C   UNL     1      22.641   9.676  36.899  0.00  0.00    +0.000 A 
ATOM      8  C   UNL     1      23.667   9.827  35.846  0.00  0.00    +0.000 C 
ATOM      9  C   UNL     1      21.307   9.854  36.637  0.00  0.00    +0.000 A 
ATOM     10  C   UNL     1      20.384   9.705  37.647  0.00  0.00    +0.000 A 
ATOM     11  C   UNL     1      20.838   9.381  38.907  0.00  0.00    +0.000 A 
ENDBRANCH   1  10
BRANCH   2  12
ATOM     12  C   UNL     1      16.933  11.252  37.448  0.00  0.00    +0.000 A 
ATOM     13  C   UNL     1      15.990  10.925  38.409  0.00  0.00    +0.000 A 
ATOM     14  C   UNL     1      14.638  11.108  38.177  0.00  0.00    +0.000 A 
ATOM     15  C   UNL     1      14.228  11.621  36.975  0.00  0.00    +0.000 A 
ATOM     16  C   UNL     1      15.135  11.971  35.966  0.00  0.00    +0.000 A 
ATOM     17  C   UNL     1      16.460  11.771  36.240  0.00  0.00    +0.000 A 
ATOM     18  C   UNL     1      17.435  12.132  35.194  0.00  0.00    +0.000 C 
BRANCH  16  19
ATOM     19  N   UNL     1      14.655  12.488  34.730  0.00  0.00    +0.000 N 
ATOM     20  O   UNL     1      14.066  13.584  34.674  0.00  0.00    +0.000 OA
ATOM     21  O   UNL     1      14.798  11.828  33.542  0.00  0.00    +0.000 OA
ENDBRANCH  16  19
ENDBRANCH   2  12
TORSDOF 3
ENDMDL
MODEL 8
REMARK VINA RESULT:      -6.3     20.397     22.846
REMARK  Name = 
REMARK  3 active torsions:
REMARK  status: ('A' for Active; 'I' for Inactive)
REMARK    1  A    between atoms: C_7  and  N_8
REMARK    2  A    between atoms: C_9  and  C_11
REMARK    3  A    between atoms: C_15  and  N_16
REMARK                            x       y       z     vdW  Elec       q    Type
REMARK                         _______ _______ _______ _____ _____    ______ ____
ROOT
ATOM      1  N   UNL     1      30.609  24.224  25.880  0.00  0.00    +0.000 NA
ATOM      2  C   UNL     1      30.587  23.619  24.604  0.00  0.00    +0.000 C 
ATOM      3  O   UNL     1      31.485  22.753  24.275  0.00  0.00    +0.000 OA
ENDROOT
BRANCH   1  10
ATOM      4  C   UNL     1      35.139  25.012  27.653  0.00  0.00    +0.000 C 
ATOM      5  C   UNL     1      33.858  24.271  27.702  0.00  0.00    +0.000 A 
ATOM      6  C   UNL     1      33.643  23.268  28.626  0.00  0.00    +0.000 A 
ATOM      7  C   UNL     1      32.428  22.581  28.638  0.00  0.00    +0.000 A 
ATOM      8  C   UNL     1      32.263  21.518  29.652  0.00  0.00    +0.000 C 
ATOM      9  C   UNL     1      31.437  22.883  27.741  0.00  0.00    +0.000 A 
ATOM     10  C   UNL     1      31.632  23.880  26.813  0.00  0.00    +0.000 A 
ATOM     11  C   UNL     1      32.837  24.549  26.813  0.00  0.00    +0.000 A 
ENDBRANCH   1  10
BRANCH   2  12
ATOM     12  C   UNL     1      29.541  23.972  23.656  0.00  0.00    +0.000 A 
ATOM     13  C   UNL     1      29.829  24.699  22.513  0.00  0.00    +0.000 A 
ATOM     14  C   UNL     1      28.843  25.009  21.593  0.00  0.00    +0.000 A 
ATOM     15  C   UNL     1      27.559  24.589  21.822  0.00  0.00    +0.000 A 
ATOM     16  C   UNL     1      27.208  23.850  22.959  0.00  0.00    +0.000 A 
ATOM     17  C   UNL     1      28.216  23.569  23.839  0.00  0.00    +0.000 A 
ATOM     18  C   UNL     1      27.873  22.791  25.045  0.00  0.00    +0.000 C 
BRANCH  16  19
ATOM     19  N   UNL     1      25.857  23.449  23.154  0.00  0.00    +0.000 N 
ATOM     20  O   UNL     1      25.315  22.618  22.401  0.00  0.00    +0.000 OA
ATOM     21  O   UNL     1      25.071  23.942  24.159  0.00  0.00    +0.000 OA
ENDBRANCH  16  19
ENDBRANCH   2  12
TORSDOF 3
ENDMDL
MODEL 9
REMARK VINA RESULT:      -6.3     19.755     20.746
REMARK  Name = 
REMARK  3 active torsions:
REMARK  status: ('A' for Active; 'I' for Inactive)
REMARK    1  A    between atoms: C_7  and  N_8
REMARK    2  A    between atoms: C_9  and  C_11
REMARK    3  A    between atoms: C_15  and  N_16
REMARK                            x       y       z     vdW  Elec       q    Type
REMARK                         _______ _______ _______ _____ _____    ______ ____
ROOT
ATOM      1  N   UNL     1      35.805   5.393  35.403  0.00  0.00    +0.000 NA
ATOM      2  C   UNL     1      34.482   4.925  35.557  0.00  0.00    +0.000 C 
ATOM      3  O   UNL     1      33.614   5.619  36.212  0.00  0.00    +0.000 OA
ENDROOT
BRANCH   1  10
ATOM      4  C   UNL     1      38.143   7.853  38.977  0.00  0.00    +0.000 C 
ATOM      5  C   UNL     1      37.350   7.862  37.727  0.00  0.00    +0.000 A 
ATOM      6  C   UNL     1      36.985   9.045  37.116  0.00  0.00    +0.000 A 
ATOM      7  C   UNL     1      36.228   9.019  35.944  0.00  0.00    +0.000 A 
ATOM      8  C   UNL     1      35.869  10.321  35.343  0.00  0.00    +0.000 C 
ATOM      9  C   UNL     1      35.833   7.832  35.384  0.00  0.00    +0.000 A 
ATOM     10  C   UNL     1      36.189   6.643  35.977  0.00  0.00    +0.000 A 
ATOM     11  C   UNL     1      36.936   6.684  37.134  0.00  0.00    +0.000 A 
ENDBRANCH   1  10
BRANCH   2  12
ATOM     12  C   UNL     1      34.095   3.651  34.969  0.00  0.00    +0.000 A 
ATOM     13  C   UNL     1      33.800   3.547  33.620  0.00  0.00    +0.000 A 
ATOM     14  C   UNL     1      33.462   2.332  33.052  0.00  0.00    +0.000 A 
ATOM     15  C   UNL     1      33.419   1.213  33.842  0.00  0.00    +0.000 A 
ATOM     16  C   UNL     1      33.708   1.256  35.211  0.00  0.00    +0.000 A 
ATOM     17  C   UNL     1      34.035   2.480  35.727  0.00  0.00    +0.000 A 
ATOM     18  C   UNL     1      34.345   2.552  37.168  0.00  0.00    +0.000 C 
BRANCH  16  19
ATOM     19  N   UNL     1      33.636   0.066  35.989  0.00  0.00    +0.000 N 
ATOM     20  O   UNL     1      34.652  -0.615  36.222  0.00  0.00    +0.000 OA
ATOM     21  O   UNL     1      32.468  -0.407  36.519  0.00  0.00    +0.000 OA
ENDBRANCH  16  19
ENDBRANCH   2  12
TORSDOF 3
ENDMDL
MODEL 10
REMARK VINA RESULT:      -6.3     19.545     22.138
REMARK  Name = 
REMARK  3 active torsions:
REMARK  status: ('A' for Active; 'I' for Inactive)
REMARK    1  A    between atoms: C_7  and  N_8
REMARK    2  A    between atoms: C_9  and  C_11
REMARK    3  A    between atoms: C_15  and  N_16
REMARK                            x       y       z     vdW  Elec       q    Type
REMARK                         _______ _______ _______ _____ _____    ______ ____
ROOT
ATOM      1  N   UNL     1      29.375  22.562  26.513  0.00  0.00    +0.000 NA
ATOM      2  C   UNL     1      28.659  23.713  26.119  0.00  0.00    +0.000 C 
ATOM      3  O   UNL     1      28.540  24.717  26.920  0.00  0.00    +0.000 OA
ENDROOT
BRANCH   1  10
ATOM      4  C   UNL     1      33.336  21.638  29.296  0.00  0.00    +0.000 C 
ATOM      5  C   UNL     1      31.923  22.065  29.185  0.00  0.00    +0.000 A 
ATOM      6  C   UNL     1      31.186  22.405  30.302  0.00  0.00    +0.000 A 
ATOM      7  C   UNL     1      29.852  22.793  30.165  0.00  0.00    +0.000 A 
ATOM      8  C   UNL     1      29.120  23.143  31.400  0.00  0.00    +0.000 C 
ATOM      9  C   UNL     1      29.253  22.839  28.933  0.00  0.00    +0.000 A 
ATOM     10  C   UNL     1      29.971  22.505  27.808  0.00  0.00    +0.000 A 
ATOM     11  C   UNL     1      31.287  22.124  27.960  0.00  0.00    +0.000 A 
ENDBRANCH   1  10
BRANCH   2  12
ATOM     12  C   UNL     1      28.053  23.768  24.797  0.00  0.00    +0.000 A 
ATOM     13  C   UNL     1      26.797  23.232  24.564  0.00  0.00    +0.000 A 
ATOM     14  C   UNL     1      26.205  23.311  23.315  0.00  0.00    +0.000 A 
ATOM     15  C   UNL     1      26.876  23.930  22.294  0.00  0.00    +0.000 A 
ATOM     16  C   UNL     1      28.147  24.491  22.470  0.00  0.00    +0.000 A 
ATOM     17  C   UNL     1      28.692  24.388  23.720  0.00  0.00    +0.000 A 
ATOM     18  C   UNL     1      30.031  24.972  23.932  0.00  0.00    +0.000 C 
BRANCH  16  19
ATOM     19  N   UNL     1      28.806  25.112  21.372  0.00  0.00    +0.000 N 
ATOM     20  O   UNL     1      28.535  26.280  21.033  0.00  0.00    +0.000 OA
ATOM     21  O   UNL     1      29.760  24.482  20.623  0.00  0.00    +0.000 OA
ENDBRANCH  16  19
ENDBRANCH   2  12
TORSDOF 3
ENDMDL
