MODEL 1
REMARK VINA RESULT:      -6.7      0.000      0.000
REMARK  Name = 
REMARK  8 active torsions:
REMARK  status: ('A' for Active; 'I' for Inactive)
REMARK    1  A    between atoms: O_2  and  C_3
REMARK    2  A    between atoms: C_8  and  O_9
REMARK    3  A    between atoms: O_9  and  C_10
REMARK    4  A    between atoms: C_10  and  C_11
REMARK    5  A    between atoms: C_17  and  C_18
REMARK    6  A    between atoms: C_22  and  O_23
REMARK    7  A    between atoms: O_23  and  C_24
REMARK    8  A    between atoms: C_24  and  C_25
REMARK                            x       y       z     vdW  Elec       q    Type
REMARK                         _______ _______ _______ _____ _____    ______ ____
ROOT
ATOM      1  C   UNL     1      40.662  -2.599  14.280  0.00  0.00    +0.000 A 
ATOM      2  C   UNL     1      40.001  -2.754  15.498  0.00  0.00    +0.000 A 
ATOM      3  C   UNL     1      38.628  -3.000  15.540  0.00  0.00    +0.000 A 
ATOM      4  C   UNL     1      37.979  -3.081  14.381  0.00  0.00    +0.000 A 
ATOM      5  C   UNL     1      38.620  -2.929  13.174  0.00  0.00    +0.000 A 
ATOM      6  C   UNL     1      39.978  -2.684  13.089  0.00  0.00    +0.000 A 
ATOM      7  C   UNL     1      36.406  -3.366  14.342  0.00  0.00    +0.000 C 
ATOM      8  N   UNL     1      36.497  -4.575  15.369  0.00  0.00    +0.000 NA
ATOM      9  C   UNL     1      36.819  -4.143  16.630  0.00  0.00    +0.000 C 
ATOM     10  C   UNL     1      37.916  -3.161  16.836  0.00  0.00    +0.000 C 
ENDROOT
BRANCH   7  11
ATOM     11  C   UNL     1      35.962  -2.242  15.397  0.00  0.00    +0.000 A 
ATOM     12  C   UNL     1      34.960  -2.480  16.245  0.00  0.00    +0.000 A 
ATOM     13  C   UNL     1      34.602  -1.494  17.139  0.00  0.00    +0.000 A 
ATOM     14  C   UNL     1      35.250  -0.283  17.174  0.00  0.00    +0.000 A 
ATOM     15  C   UNL     1      36.281  -0.064  16.287  0.00  0.00    +0.000 A 
ATOM     16  C   UNL     1      36.625  -1.068  15.397  0.00  0.00    +0.000 A 
BRANCH  15  17
ATOM     17  O   UNL     1      37.014   1.078  16.201  0.00  0.00    +0.000 OA
BRANCH  17  18
ATOM     18  C   UNL     1      37.151   2.046  15.257  0.00  0.00    +0.000 C 
BRANCH  18  19
ATOM     19  C   UNL     1      38.402   2.138  14.480  0.00  0.00    +0.000 C 
ATOM     20  C   UNL     1      39.307   0.940  14.595  0.00  0.00    +0.000 C 
ATOM     21  C   UNL     1      39.192   3.349  14.920  0.00  0.00    +0.000 C 
ENDBRANCH  18  19
ENDBRANCH  17  18
ENDBRANCH  15  17
ENDBRANCH   7  11
BRANCH   1  23
ATOM     22  C   UNL     1      42.488  -1.017  14.393  0.00  0.00    +0.000 C 
ATOM     23  O   UNL     1      42.043  -2.352  14.285  0.00  0.00    +0.000 OA
ENDBRANCH   1  23
BRANCH   6  24
ATOM     24  O   UNL     1      40.648  -2.529  11.905  0.00  0.00    +0.000 OA
BRANCH  24  25
ATOM     25  C   UNL     1      40.118  -1.985  10.735  0.00  0.00    +0.000 C 
BRANCH  25  26
ATOM     26  C   UNL     1      40.128  -0.496  10.880  0.00  0.00    +0.000 A 
ATOM     27  C   UNL     1      38.986   0.234  10.795  0.00  0.00    +0.000 A 
ATOM     28  C   UNL     1      39.049   1.589  10.934  0.00  0.00    +0.000 A 
ATOM     29  C   UNL     1      40.240   2.205  11.155  0.00  0.00    +0.000 A 
ATOM     30  C   UNL     1      41.402   1.469  11.242  0.00  0.00    +0.000 A 
ATOM     31  C   UNL     1      41.349   0.102  11.103  0.00  0.00    +0.000 A 
ENDBRANCH  25  26
ENDBRANCH  24  25
ENDBRANCH   6  24
TORSDOF 8
ENDMDL
MODEL 2
REMARK VINA RESULT:      -6.7      2.265      6.139
REMARK  Name = 
REMARK  8 active torsions:
REMARK  status: ('A' for Active; 'I' for Inactive)
REMARK    1  A    between atoms: O_2  and  C_3
REMARK    2  A    between atoms: C_8  and  O_9
REMARK    3  A    between atoms: O_9  and  C_10
REMARK    4  A    between atoms: C_10  and  C_11
REMARK    5  A    between atoms: C_17  and  C_18
REMARK    6  A    between atoms: C_22  and  O_23
REMARK    7  A    between atoms: O_23  and  C_24
REMARK    8  A    between atoms: C_24  and  C_25
REMARK                            x       y       z     vdW  Elec       q    Type
REMARK                         _______ _______ _______ _____ _____    ______ ____
ROOT
ATOM      1  C   UNL     1      37.822  -3.493  14.665  0.00  0.00    +0.000 A 
ATOM      2  C   UNL     1      38.283  -2.938  13.471  0.00  0.00    +0.000 A 
ATOM      3  C   UNL     1      39.485  -2.232  13.428  0.00  0.00    +0.000 A 
ATOM      4  C   UNL     1      40.171  -2.110  14.562  0.00  0.00    +0.000 A 
ATOM      5  C   UNL     1      39.726  -2.653  15.745  0.00  0.00    +0.000 A 
ATOM      6  C   UNL     1      38.541  -3.358  15.829  0.00  0.00    +0.000 A 
ATOM      7  C   UNL     1      41.562  -1.322  14.597  0.00  0.00    +0.000 C 
ATOM      8  N   UNL     1      42.134  -2.068  13.316  0.00  0.00    +0.000 NA
ATOM      9  C   UNL     1      41.464  -1.700  12.177  0.00  0.00    +0.000 C 
ATOM     10  C   UNL     1      39.980  -1.634  12.160  0.00  0.00    +0.000 C 
ENDROOT
BRANCH   7  11
ATOM     11  C   UNL     1      41.068   0.009  13.848  0.00  0.00    +0.000 A 
ATOM     12  C   UNL     1      41.866   0.614  12.967  0.00  0.00    +0.000 A 
ATOM     13  C   UNL     1      41.413   1.755  12.341  0.00  0.00    +0.000 A 
ATOM     14  C   UNL     1      40.169   2.276  12.604  0.00  0.00    +0.000 A 
ATOM     15  C   UNL     1      39.367   1.630  13.518  0.00  0.00    +0.000 A 
ATOM     16  C   UNL     1      39.840   0.486  14.135  0.00  0.00    +0.000 A 
BRANCH  15  17
ATOM     17  O   UNL     1      38.116   2.024  13.881  0.00  0.00    +0.000 OA
BRANCH  17  18
ATOM     18  C   UNL     1      37.523   2.314  15.068  0.00  0.00    +0.000 C 
BRANCH  18  19
ATOM     19  C   UNL     1      36.580   1.351  15.670  0.00  0.00    +0.000 C 
ATOM     20  C   UNL     1      36.381   0.084  14.880  0.00  0.00    +0.000 C 
ATOM     21  C   UNL     1      35.225   1.998  15.842  0.00  0.00    +0.000 C 
ENDBRANCH  18  19
ENDBRANCH  17  18
ENDBRANCH  15  17
ENDBRANCH   7  11
BRANCH   1  23
ATOM     22  C   UNL     1      35.409  -3.466  14.492  0.00  0.00    +0.000 C 
ATOM     23  O   UNL     1      36.607  -4.195  14.661  0.00  0.00    +0.000 OA
ENDBRANCH   1  23
BRANCH   6  24
ATOM     24  O   UNL     1      38.069  -3.912  16.990  0.00  0.00    +0.000 OA
BRANCH  24  25
ATOM     25  C   UNL     1      38.203  -3.366  18.266  0.00  0.00    +0.000 C 
BRANCH  25  26
ATOM     26  C   UNL     1      37.189  -2.274  18.403  0.00  0.00    +0.000 A 
ATOM     27  C   UNL     1      37.430  -1.169  19.155  0.00  0.00    +0.000 A 
ATOM     28  C   UNL     1      36.473  -0.202  19.247  0.00  0.00    +0.000 A 
ATOM     29  C   UNL     1      35.290  -0.340  18.595  0.00  0.00    +0.000 A 
ATOM     30  C   UNL     1      35.040  -1.459  17.829  0.00  0.00    +0.000 A 
ATOM     31  C   UNL     1      35.998  -2.439  17.730  0.00  0.00    +0.000 A 
ENDBRANCH  25  26
ENDBRANCH  24  25
ENDBRANCH   6  24
TORSDOF 8
ENDMDL
MODEL 3
REMARK VINA RESULT:      -6.6      2.182      5.784
REMARK  Name = 
REMARK  8 active torsions:
REMARK  status: ('A' for Active; 'I' for Inactive)
REMARK    1  A    between atoms: O_2  and  C_3
REMARK    2  A    between atoms: C_8  and  O_9
REMARK    3  A    between atoms: O_9  and  C_10
REMARK    4  A    between atoms: C_10  and  C_11
REMARK    5  A    between atoms: C_17  and  C_18
REMARK    6  A    between atoms: C_22  and  O_23
REMARK    7  A    between atoms: O_23  and  C_24
REMARK    8  A    between atoms: C_24  and  C_25
REMARK                            x       y       z     vdW  Elec       q    Type
REMARK                         _______ _______ _______ _____ _____    ______ ____
ROOT
ATOM      1  C   UNL     1      36.928   1.908  13.849  0.00  0.00    +0.000 A 
ATOM      2  C   UNL     1      36.707   0.539  13.695  0.00  0.00    +0.000 A 
ATOM      3  C   UNL     1      36.580  -0.294  14.808  0.00  0.00    +0.000 A 
ATOM      4  C   UNL     1      36.677   0.265  16.012  0.00  0.00    +0.000 A 
ATOM      5  C   UNL     1      36.895   1.613  16.176  0.00  0.00    +0.000 A 
ATOM      6  C   UNL     1      37.026   2.471  15.100  0.00  0.00    +0.000 A 
ATOM      7  C   UNL     1      36.537  -0.618  17.337  0.00  0.00    +0.000 C 
ATOM      8  N   UNL     1      35.225  -1.357  16.829  0.00  0.00    +0.000 NA
ATOM      9  C   UNL     1      35.495  -2.201  15.782  0.00  0.00    +0.000 C 
ATOM     10  C   UNL     1      36.349  -1.754  14.651  0.00  0.00    +0.000 C 
ENDROOT
BRANCH   7  11
ATOM     11  C   UNL     1      37.581  -1.769  16.935  0.00  0.00    +0.000 A 
ATOM     12  C   UNL     1      37.348  -3.034  17.285  0.00  0.00    +0.000 A 
ATOM     13  C   UNL     1      38.264  -3.999  16.924  0.00  0.00    +0.000 A 
ATOM     14  C   UNL     1      39.401  -3.685  16.219  0.00  0.00    +0.000 A 
ATOM     15  C   UNL     1      39.616  -2.370  15.872  0.00  0.00    +0.000 A 
ATOM     16  C   UNL     1      38.684  -1.417  16.242  0.00  0.00    +0.000 A 
BRANCH  15  17
ATOM     17  O   UNL     1      40.690  -1.907  15.177  0.00  0.00    +0.000 OA
BRANCH  17  18
ATOM     18  C   UNL     1      40.844  -1.264  13.990  0.00  0.00    +0.000 C 
BRANCH  18  19
ATOM     19  C   UNL     1      40.701  -2.013  12.728  0.00  0.00    +0.000 C 
ATOM     20  C   UNL     1      39.283  -2.355  12.353  0.00  0.00    +0.000 C 
ATOM     21  C   UNL     1      41.475  -3.310  12.809  0.00  0.00    +0.000 C 
ENDBRANCH  18  19
ENDBRANCH  17  18
ENDBRANCH  15  17
ENDBRANCH   7  11
BRANCH   1  23
ATOM     22  C   UNL     1      37.657   2.152  11.555  0.00  0.00    +0.000 C 
ATOM     23  O   UNL     1      37.049   2.708  12.702  0.00  0.00    +0.000 OA
ENDBRANCH   1  23
BRANCH   6  24
ATOM     24  O   UNL     1      37.243   3.817  15.226  0.00  0.00    +0.000 OA
BRANCH  24  25
ATOM     25  C   UNL     1      38.439   4.479  14.947  0.00  0.00    +0.000 C 
BRANCH  25  26
ATOM     26  C   UNL     1      38.995   4.980  16.243  0.00  0.00    +0.000 A 
ATOM     27  C   UNL     1      38.389   4.710  17.429  0.00  0.00    +0.000 A 
ATOM     28  C   UNL     1      38.936   5.190  18.582  0.00  0.00    +0.000 A 
ATOM     29  C   UNL     1      40.073   5.932  18.549  0.00  0.00    +0.000 A 
ATOM     30  C   UNL     1      40.693   6.208  17.349  0.00  0.00    +0.000 A 
ATOM     31  C   UNL     1      40.150   5.729  16.181  0.00  0.00    +0.000 A 
ENDBRANCH  25  26
ENDBRANCH  24  25
ENDBRANCH   6  24
TORSDOF 8
ENDMDL
MODEL 4
REMARK VINA RESULT:      -6.5      1.526      2.432
REMARK  Name = 
REMARK  8 active torsions:
REMARK  status: ('A' for Active; 'I' for Inactive)
REMARK    1  A    between atoms: O_2  and  C_3
REMARK    2  A    between atoms: C_8  and  O_9
REMARK    3  A    between atoms: O_9  and  C_10
REMARK    4  A    between atoms: C_10  and  C_11
REMARK    5  A    between atoms: C_17  and  C_18
REMARK    6  A    between atoms: C_22  and  O_23
REMARK    7  A    between atoms: O_23  and  C_24
REMARK    8  A    between atoms: C_24  and  C_25
REMARK                            x       y       z     vdW  Elec       q    Type
REMARK                         _______ _______ _______ _____ _____    ______ ____
ROOT
ATOM      1  C   UNL     1      40.462  -2.580  14.300  0.00  0.00    +0.000 A 
ATOM      2  C   UNL     1      39.838  -2.746  15.537  0.00  0.00    +0.000 A 
ATOM      3  C   UNL     1      38.466  -2.987  15.619  0.00  0.00    +0.000 A 
ATOM      4  C   UNL     1      37.782  -3.053  14.480  0.00  0.00    +0.000 A 
ATOM      5  C   UNL     1      38.386  -2.891  13.255  0.00  0.00    +0.000 A 
ATOM      6  C   UNL     1      39.741  -2.651  13.131  0.00  0.00    +0.000 A 
ATOM      7  C   UNL     1      36.207  -3.332  14.487  0.00  0.00    +0.000 C 
ATOM      8  N   UNL     1      36.325  -4.552  15.498  0.00  0.00    +0.000 NA
ATOM      9  C   UNL     1      36.688  -4.134  16.752  0.00  0.00    +0.000 C 
ATOM     10  C   UNL     1      37.795  -3.159  16.934  0.00  0.00    +0.000 C 
ENDROOT
BRANCH   7  11
ATOM     11  C   UNL     1      35.800  -2.217  15.567  0.00  0.00    +0.000 A 
ATOM     12  C   UNL     1      34.834  -2.466  16.451  0.00  0.00    +0.000 A 
ATOM     13  C   UNL     1      34.507  -1.488  17.366  0.00  0.00    +0.000 A 
ATOM     14  C   UNL     1      35.152  -0.274  17.385  0.00  0.00    +0.000 A 
ATOM     15  C   UNL     1      36.146  -0.045  16.459  0.00  0.00    +0.000 A 
ATOM     16  C   UNL     1      36.459  -1.040  15.550  0.00  0.00    +0.000 A 
BRANCH  15  17
ATOM     17  O   UNL     1      36.871   1.101  16.354  0.00  0.00    +0.000 OA
BRANCH  17  18
ATOM     18  C   UNL     1      36.581   2.420  16.500  0.00  0.00    +0.000 C 
BRANCH  18  19
ATOM     19  C   UNL     1      35.851   3.132  15.434  0.00  0.00    +0.000 C 
ATOM     20  C   UNL     1      34.351   3.029  15.517  0.00  0.00    +0.000 C 
ATOM     21  C   UNL     1      36.269   2.601  14.081  0.00  0.00    +0.000 C 
ENDBRANCH  18  19
ENDBRANCH  17  18
ENDBRANCH  15  17
ENDBRANCH   7  11
BRANCH   1  23
ATOM     22  C   UNL     1      42.300  -1.012  14.420  0.00  0.00    +0.000 C 
ATOM     23  O   UNL     1      41.844  -2.339  14.265  0.00  0.00    +0.000 OA
ENDBRANCH   1  23
BRANCH   6  24
ATOM     24  O   UNL     1      40.375  -2.485  11.929  0.00  0.00    +0.000 OA
BRANCH  24  25
ATOM     25  C   UNL     1      40.207  -1.405  11.061  0.00  0.00    +0.000 C 
BRANCH  25  26
ATOM     26  C   UNL     1      40.459  -1.895   9.670  0.00  0.00    +0.000 A 
ATOM     27  C   UNL     1      40.799  -3.187   9.421  0.00  0.00    +0.000 A 
ATOM     28  C   UNL     1      41.017  -3.583   8.136  0.00  0.00    +0.000 A 
ATOM     29  C   UNL     1      40.898  -2.699   7.111  0.00  0.00    +0.000 A 
ATOM     30  C   UNL     1      40.552  -1.387   7.358  0.00  0.00    +0.000 A 
ATOM     31  C   UNL     1      40.329  -0.977   8.651  0.00  0.00    +0.000 A 
ENDBRANCH  25  26
ENDBRANCH  24  25
ENDBRANCH   6  24
TORSDOF 8
ENDMDL
MODEL 5
REMARK VINA RESULT:      -6.5      5.613      9.467
REMARK  Name = 
REMARK  8 active torsions:
REMARK  status: ('A' for Active; 'I' for Inactive)
REMARK    1  A    between atoms: O_2  and  C_3
REMARK    2  A    between atoms: C_8  and  O_9
REMARK    3  A    between atoms: O_9  and  C_10
REMARK    4  A    between atoms: C_10  and  C_11
REMARK    5  A    between atoms: C_17  and  C_18
REMARK    6  A    between atoms: C_22  and  O_23
REMARK    7  A    between atoms: O_23  and  C_24
REMARK    8  A    between atoms: C_24  and  C_25
REMARK                            x       y       z     vdW  Elec       q    Type
REMARK                         _______ _______ _______ _____ _____    ______ ____
ROOT
ATOM      1  C   UNL     1      38.154   5.178  15.646  0.00  0.00    +0.000 A 
ATOM      2  C   UNL     1      38.792   6.402  15.846  0.00  0.00    +0.000 A 
ATOM      3  C   UNL     1      39.338   6.730  17.088  0.00  0.00    +0.000 A 
ATOM      4  C   UNL     1      39.228   5.834  18.066  0.00  0.00    +0.000 A 
ATOM      5  C   UNL     1      38.600   4.624  17.882  0.00  0.00    +0.000 A 
ATOM      6  C   UNL     1      38.047   4.263  16.668  0.00  0.00    +0.000 A 
ATOM      7  C   UNL     1      39.832   6.130  19.517  0.00  0.00    +0.000 C 
ATOM      8  N   UNL     1      41.231   6.619  18.946  0.00  0.00    +0.000 NA
ATOM      9  C   UNL     1      41.115   7.814  18.283  0.00  0.00    +0.000 C 
ATOM     10  C   UNL     1      40.015   8.034  17.309  0.00  0.00    +0.000 C 
ENDROOT
BRANCH   7  11
ATOM     11  C   UNL     1      39.182   7.582  19.724  0.00  0.00    +0.000 A 
ATOM     12  C   UNL     1      39.841   8.517  20.409  0.00  0.00    +0.000 A 
ATOM     13  C   UNL     1      39.257   9.755  20.569  0.00  0.00    +0.000 A 
ATOM     14  C   UNL     1      38.020  10.041  20.043  0.00  0.00    +0.000 A 
ATOM     15  C   UNL     1      37.362   9.057  19.341  0.00  0.00    +0.000 A 
ATOM     16  C   UNL     1      37.967   7.821  19.191  0.00  0.00    +0.000 A 
BRANCH  15  17
ATOM     17  O   UNL     1      36.137   9.189  18.764  0.00  0.00    +0.000 OA
BRANCH  17  18
ATOM     18  C   UNL     1      35.703   9.646  17.560  0.00  0.00    +0.000 C 
BRANCH  18  19
ATOM     19  C   UNL     1      36.432   9.279  16.332  0.00  0.00    +0.000 C 
ATOM     20  C   UNL     1      37.382  10.330  15.821  0.00  0.00    +0.000 C 
ATOM     21  C   UNL     1      35.450   8.976  15.222  0.00  0.00    +0.000 C 
ENDBRANCH  18  19
ENDBRANCH  17  18
ENDBRANCH  15  17
ENDBRANCH   7  11
BRANCH   1  23
ATOM     22  C   UNL     1      36.426   5.537  13.993  0.00  0.00    +0.000 C 
ATOM     23  O   UNL     1      37.619   4.891  14.381  0.00  0.00    +0.000 OA
ENDBRANCH   1  23
BRANCH   6  24
ATOM     24  O   UNL     1      37.416   3.067  16.448  0.00  0.00    +0.000 OA
BRANCH  24  25
ATOM     25  C   UNL     1      36.044   2.837  16.560  0.00  0.00    +0.000 C 
BRANCH  25  26
ATOM     26  C   UNL     1      35.818   1.364  16.437  0.00  0.00    +0.000 A 
ATOM     27  C   UNL     1      34.967   0.703  17.263  0.00  0.00    +0.000 A 
ATOM     28  C   UNL     1      34.796  -0.641  17.110  0.00  0.00    +0.000 A 
ATOM     29  C   UNL     1      35.469  -1.315  16.142  0.00  0.00    +0.000 A 
ATOM     30  C   UNL     1      36.334  -0.650  15.299  0.00  0.00    +0.000 A 
ATOM     31  C   UNL     1      36.513   0.705  15.445  0.00  0.00    +0.000 A 
ENDBRANCH  25  26
ENDBRANCH  24  25
ENDBRANCH   6  24
TORSDOF 8
ENDMDL
MODEL 6
REMARK VINA RESULT:      -6.4      3.392      6.733
REMARK  Name = 
REMARK  8 active torsions:
REMARK  status: ('A' for Active; 'I' for Inactive)
REMARK    1  A    between atoms: O_2  and  C_3
REMARK    2  A    between atoms: C_8  and  O_9
REMARK    3  A    between atoms: O_9  and  C_10
REMARK    4  A    between atoms: C_10  and  C_11
REMARK    5  A    between atoms: C_17  and  C_18
REMARK    6  A    between atoms: C_22  and  O_23
REMARK    7  A    between atoms: O_23  and  C_24
REMARK    8  A    between atoms: C_24  and  C_25
REMARK                            x       y       z     vdW  Elec       q    Type
REMARK                         _______ _______ _______ _____ _____    ______ ____
ROOT
ATOM      1  C   UNL     1      38.993   3.850  13.991  0.00  0.00    +0.000 A 
ATOM      2  C   UNL     1      37.939   3.019  13.612  0.00  0.00    +0.000 A 
ATOM      3  C   UNL     1      36.974   2.620  14.538  0.00  0.00    +0.000 A 
ATOM      4  C   UNL     1      37.099   3.061  15.788  0.00  0.00    +0.000 A 
ATOM      5  C   UNL     1      38.134   3.881  16.173  0.00  0.00    +0.000 A 
ATOM      6  C   UNL     1      39.109   4.298  15.286  0.00  0.00    +0.000 A 
ATOM      7  C   UNL     1      36.033   2.656  16.909  0.00  0.00    +0.000 C 
ATOM      8  N   UNL     1      34.783   3.001  15.990  0.00  0.00    +0.000 NA
ATOM      9  C   UNL     1      34.663   2.116  14.949  0.00  0.00    +0.000 C 
ATOM     10  C   UNL     1      35.851   1.731  14.143  0.00  0.00    +0.000 C 
ENDROOT
BRANCH   7  11
ATOM     11  C   UNL     1      36.042   1.073  16.646  0.00  0.00    +0.000 A 
ATOM     12  C   UNL     1      34.938   0.355  16.851  0.00  0.00    +0.000 A 
ATOM     13  C   UNL     1      34.978  -1.002  16.616  0.00  0.00    +0.000 A 
ATOM     14  C   UNL     1      36.122  -1.624  16.179  0.00  0.00    +0.000 A 
ATOM     15  C   UNL     1      37.249  -0.858  15.975  0.00  0.00    +0.000 A 
ATOM     16  C   UNL     1      37.187   0.503  16.216  0.00  0.00    +0.000 A 
BRANCH  15  17
ATOM     17  O   UNL     1      38.451  -1.328  15.546  0.00  0.00    +0.000 OA
BRANCH  17  18
ATOM     18  C   UNL     1      39.329  -0.941  14.585  0.00  0.00    +0.000 C 
BRANCH  18  19
ATOM     19  C   UNL     1      39.124  -1.374  13.189  0.00  0.00    +0.000 C 
ATOM     20  C   UNL     1      38.131  -0.551  12.412  0.00  0.00    +0.000 C 
ATOM     21  C   UNL     1      38.648  -2.809  13.160  0.00  0.00    +0.000 C 
ENDBRANCH  18  19
ENDBRANCH  17  18
ENDBRANCH  15  17
ENDBRANCH   7  11
BRANCH   1  23
ATOM     22  C   UNL     1      40.865   3.257  12.578  0.00  0.00    +0.000 C 
ATOM     23  O   UNL     1      39.940   4.226  13.026  0.00  0.00    +0.000 OA
ENDBRANCH   1  23
BRANCH   6  24
ATOM     24  O   UNL     1      40.152   5.113  15.635  0.00  0.00    +0.000 OA
BRANCH  24  25
ATOM     25  C   UNL     1      40.040   6.416  16.121  0.00  0.00    +0.000 C 
BRANCH  25  26
ATOM     26  C   UNL     1      40.596   6.433  17.510  0.00  0.00    +0.000 A 
ATOM     27  C   UNL     1      41.931   6.526  17.741  0.00  0.00    +0.000 A 
ATOM     28  C   UNL     1      42.387   6.538  19.026  0.00  0.00    +0.000 A 
ATOM     29  C   UNL     1      41.517   6.456  20.066  0.00  0.00    +0.000 A 
ATOM     30  C   UNL     1      40.161   6.363  19.838  0.00  0.00    +0.000 A 
ATOM     31  C   UNL     1      39.691   6.350  18.546  0.00  0.00    +0.000 A 
ENDBRANCH  25  26
ENDBRANCH  24  25
ENDBRANCH   6  24
TORSDOF 8
ENDMDL
MODEL 7
REMARK VINA RESULT:      -6.3     24.624     28.960
REMARK  Name = 
REMARK  8 active torsions:
REMARK  status: ('A' for Active; 'I' for Inactive)
REMARK    1  A    between atoms: O_2  and  C_3
REMARK    2  A    between atoms: C_8  and  O_9
REMARK    3  A    between atoms: O_9  and  C_10
REMARK    4  A    between atoms: C_10  and  C_11
REMARK    5  A    between atoms: C_17  and  C_18
REMARK    6  A    between atoms: C_22  and  O_23
REMARK    7  A    between atoms: O_23  and  C_24
REMARK    8  A    between atoms: C_24  and  C_25
REMARK                            x       y       z     vdW  Elec       q    Type
REMARK                         _______ _______ _______ _____ _____    ______ ____
ROOT
ATOM      1  C   UNL     1      13.246  -0.250  28.765  0.00  0.00    +0.000 A 
ATOM      2  C   UNL     1      11.874  -0.504  28.770  0.00  0.00    +0.000 A 
ATOM      3  C   UNL     1      11.213  -0.884  27.601  0.00  0.00    +0.000 A 
ATOM      4  C   UNL     1      11.938  -0.995  26.490  0.00  0.00    +0.000 A 
ATOM      5  C   UNL     1      13.291  -0.747  26.473  0.00  0.00    +0.000 A 
ATOM      6  C   UNL     1      13.981  -0.369  27.609  0.00  0.00    +0.000 A 
ATOM      7  C   UNL     1      11.258  -1.432  25.110  0.00  0.00    +0.000 C 
ATOM      8  N   UNL     1      10.482  -2.655  25.762  0.00  0.00    +0.000 NA
ATOM      9  C   UNL     1       9.490  -2.229  26.608  0.00  0.00    +0.000 C 
ATOM     10  C   UNL     1       9.751  -1.151  27.598  0.00  0.00    +0.000 C 
ENDROOT
BRANCH   7  11
ATOM     11  C   UNL     1      10.041  -0.387  25.135  0.00  0.00    +0.000 A 
ATOM     12  C   UNL     1       8.864  -0.721  24.605  0.00  0.00    +0.000 A 
ATOM     13  C   UNL     1       7.837   0.199  24.642  0.00  0.00    +0.000 A 
ATOM     14  C   UNL     1       8.002   1.440  25.208  0.00  0.00    +0.000 A 
ATOM     15  C   UNL     1       9.229   1.758  25.748  0.00  0.00    +0.000 A 
ATOM     16  C   UNL     1      10.246   0.820  25.701  0.00  0.00    +0.000 A 
BRANCH  15  17
ATOM     17  O   UNL     1       9.543   2.941  26.340  0.00  0.00    +0.000 OA
BRANCH  17  18
ATOM     18  C   UNL     1      10.631   3.755  26.309  0.00  0.00    +0.000 C 
BRANCH  18  19
ATOM     19  C   UNL     1      11.571   3.763  27.446  0.00  0.00    +0.000 C 
ATOM     20  C   UNL     1      12.901   3.113  27.170  0.00  0.00    +0.000 C 
ATOM     21  C   UNL     1      10.954   3.053  28.629  0.00  0.00    +0.000 C 
ENDBRANCH  18  19
ENDBRANCH  17  18
ENDBRANCH  15  17
ENDBRANCH   7  11
BRANCH   1  23
ATOM     22  C   UNL     1      13.055   0.462  31.069  0.00  0.00    +0.000 C 
ATOM     23  O   UNL     1      13.869   0.129  29.964  0.00  0.00    +0.000 OA
ENDBRANCH   1  23
BRANCH   6  24
ATOM     24  O   UNL     1      15.327  -0.115  27.629  0.00  0.00    +0.000 OA
BRANCH  24  25
ATOM     25  C   UNL     1      15.967   0.937  26.972  0.00  0.00    +0.000 C 
BRANCH  25  26
ATOM     26  C   UNL     1      17.060   0.352  26.134  0.00  0.00    +0.000 A 
ATOM     27  C   UNL     1      17.252  -0.990  26.050  0.00  0.00    +0.000 A 
ATOM     28  C   UNL     1      18.263  -1.472  25.273  0.00  0.00    +0.000 A 
ATOM     29  C   UNL     1      19.072  -0.622  24.588  0.00  0.00    +0.000 A 
ATOM     30  C   UNL     1      18.881   0.741  24.668  0.00  0.00    +0.000 A 
ATOM     31  C   UNL     1      17.865   1.238  25.450  0.00  0.00    +0.000 A 
ENDBRANCH  25  26
ENDBRANCH  24  25
ENDBRANCH   6  24
TORSDOF 8
ENDMDL
MODEL 8
REMARK VINA RESULT:      -6.1     28.507     30.988
REMARK  Name = 
REMARK  8 active torsions:
REMARK  status: ('A' for Active; 'I' for Inactive)
REMARK    1  A    between atoms: O_2  and  C_3
REMARK    2  A    between atoms: C_8  and  O_9
REMARK    3  A    between atoms: O_9  and  C_10
REMARK    4  A    between atoms: C_10  and  C_11
REMARK    5  A    between atoms: C_17  and  C_18
REMARK    6  A    between atoms: C_22  and  O_23
REMARK    7  A    between atoms: O_23  and  C_24
REMARK    8  A    between atoms: C_24  and  C_25
REMARK                            x       y       z     vdW  Elec       q    Type
REMARK                         _______ _______ _______ _____ _____    ______ ____
ROOT
ATOM      1  C   UNL     1      29.102  15.096  38.614  0.00  0.00    +0.000 A 
ATOM      2  C   UNL     1      29.076  15.882  37.463  0.00  0.00    +0.000 A 
ATOM      3  C   UNL     1      27.868  16.350  36.944  0.00  0.00    +0.000 A 
ATOM      4  C   UNL     1      26.751  16.021  37.587  0.00  0.00    +0.000 A 
ATOM      5  C   UNL     1      26.764  15.245  38.723  0.00  0.00    +0.000 A 
ATOM      6  C   UNL     1      27.939  14.762  39.268  0.00  0.00    +0.000 A 
ATOM      7  C   UNL     1      25.326  16.522  37.062  0.00  0.00    +0.000 C 
ATOM      8  N   UNL     1      25.808  18.025  36.880  0.00  0.00    +0.000 NA
ATOM      9  C   UNL     1      26.707  18.145  35.851  0.00  0.00    +0.000 C 
ATOM     10  C   UNL     1      27.833  17.185  35.714  0.00  0.00    +0.000 C 
ENDROOT
BRANCH   7  11
ATOM     11  C   UNL     1      25.496  16.072  35.531  0.00  0.00    +0.000 A 
ATOM     12  C   UNL     1      26.051  14.896  35.238  0.00  0.00    +0.000 A 
ATOM     13  C   UNL     1      26.182  14.539  33.913  0.00  0.00    +0.000 A 
ATOM     14  C   UNL     1      25.757  15.363  32.899  0.00  0.00    +0.000 A 
ATOM     15  C   UNL     1      25.188  16.572  33.231  0.00  0.00    +0.000 A 
ATOM     16  C   UNL     1      25.064  16.911  34.567  0.00  0.00    +0.000 A 
BRANCH  15  17
ATOM     17  O   UNL     1      24.721  17.490  32.343  0.00  0.00    +0.000 OA
BRANCH  17  18
ATOM     18  C   UNL     1      23.841  18.522  32.423  0.00  0.00    +0.000 C 
BRANCH  18  19
ATOM     19  C   UNL     1      24.120  19.780  31.704  0.00  0.00    +0.000 C 
ATOM     20  C   UNL     1      25.213  20.623  32.306  0.00  0.00    +0.000 C 
ATOM     21  C   UNL     1      22.870  20.628  31.646  0.00  0.00    +0.000 C 
ENDBRANCH  18  19
ENDBRANCH  17  18
ENDBRANCH  15  17
ENDBRANCH   7  11
BRANCH   1  23
ATOM     22  C   UNL     1      31.070  13.719  38.325  0.00  0.00    +0.000 C 
ATOM     23  O   UNL     1      30.340  14.646  39.100  0.00  0.00    +0.000 OA
ENDBRANCH   1  23
BRANCH   6  24
ATOM     24  O   UNL     1      27.989  13.990  40.398  0.00  0.00    +0.000 OA
BRANCH  24  25
ATOM     25  C   UNL     1      27.009  13.086  40.811  0.00  0.00    +0.000 C 
BRANCH  25  26
ATOM     26  C   UNL     1      27.634  11.728  40.861  0.00  0.00    +0.000 A 
ATOM     27  C   UNL     1      26.916  10.626  41.200  0.00  0.00    +0.000 A 
ATOM     28  C   UNL     1      27.533   9.411  41.231  0.00  0.00    +0.000 A 
ATOM     29  C   UNL     1      28.852   9.300  40.926  0.00  0.00    +0.000 A 
ATOM     30  C   UNL     1      29.586  10.414  40.581  0.00  0.00    +0.000 A 
ATOM     31  C   UNL     1      28.974  11.644  40.547  0.00  0.00    +0.000 A 
ENDBRANCH  25  26
ENDBRANCH  24  25
ENDBRANCH   6  24
TORSDOF 8
ENDMDL
MODEL 9
REMARK VINA RESULT:      -6.1      3.845      7.467
REMARK  Name = 
REMARK  8 active torsions:
REMARK  status: ('A' for Active; 'I' for Inactive)
REMARK    1  A    between atoms: O_2  and  C_3
REMARK    2  A    between atoms: C_8  and  O_9
REMARK    3  A    between atoms: O_9  and  C_10
REMARK    4  A    between atoms: C_10  and  C_11
REMARK    5  A    between atoms: C_17  and  C_18
REMARK    6  A    between atoms: C_22  and  O_23
REMARK    7  A    between atoms: O_23  and  C_24
REMARK    8  A    between atoms: C_24  and  C_25
REMARK                            x       y       z     vdW  Elec       q    Type
REMARK                         _______ _______ _______ _____ _____    ______ ____
ROOT
ATOM      1  C   UNL     1      38.579   5.230  15.003  0.00  0.00    +0.000 A 
ATOM      2  C   UNL     1      37.735   4.423  14.241  0.00  0.00    +0.000 A 
ATOM      3  C   UNL     1      36.950   3.439  14.843  0.00  0.00    +0.000 A 
ATOM      4  C   UNL     1      37.039   3.302  16.164  0.00  0.00    +0.000 A 
ATOM      5  C   UNL     1      37.868   4.092  16.926  0.00  0.00    +0.000 A 
ATOM      6  C   UNL     1      38.660   5.077  16.367  0.00  0.00    +0.000 A 
ATOM      7  C   UNL     1      36.169   2.203  16.933  0.00  0.00    +0.000 C 
ATOM      8  N   UNL     1      34.821   2.604  16.193  0.00  0.00    +0.000 NA
ATOM      9  C   UNL     1      34.856   2.265  14.864  0.00  0.00    +0.000 C 
ATOM     10  C   UNL     1      36.052   2.572  14.036  0.00  0.00    +0.000 C 
ENDROOT
BRANCH   7  11
ATOM     11  C   UNL     1      36.542   0.950  16.002  0.00  0.00    +0.000 A 
ATOM     12  C   UNL     1      35.658  -0.030  15.814  0.00  0.00    +0.000 A 
ATOM     13  C   UNL     1      36.009  -1.092  15.008  0.00  0.00    +0.000 A 
ATOM     14  C   UNL     1      37.240  -1.160  14.402  0.00  0.00    +0.000 A 
ATOM     15  C   UNL     1      38.134  -0.134  14.614  0.00  0.00    +0.000 A 
ATOM     16  C   UNL     1      37.762   0.923  15.426  0.00  0.00    +0.000 A 
BRANCH  15  17
ATOM     17  O   UNL     1      39.385  -0.061  14.085  0.00  0.00    +0.000 OA
BRANCH  17  18
ATOM     18  C   UNL     1      40.611  -0.481  14.492  0.00  0.00    +0.000 C 
BRANCH  18  19
ATOM     19  C   UNL     1      41.020  -1.879  14.259  0.00  0.00    +0.000 C 
ATOM     20  C   UNL     1      40.496  -2.868  15.267  0.00  0.00    +0.000 C 
ATOM     21  C   UNL     1      42.529  -1.981  14.264  0.00  0.00    +0.000 C 
ENDBRANCH  18  19
ENDBRANCH  17  18
ENDBRANCH  15  17
ENDBRANCH   7  11
BRANCH   1  23
ATOM     22  C   UNL     1      38.720   7.040  13.404  0.00  0.00    +0.000 C 
ATOM     23  O   UNL     1      39.350   6.207  14.354  0.00  0.00    +0.000 OA
ENDBRANCH   1  23
BRANCH   6  24
ATOM     24  O   UNL     1      39.496   5.882  17.095  0.00  0.00    +0.000 OA
BRANCH  24  25
ATOM     25  C   UNL     1      39.443   6.073  18.476  0.00  0.00    +0.000 C 
BRANCH  25  26
ATOM     26  C   UNL     1      40.840   6.315  18.956  0.00  0.00    +0.000 A 
ATOM     27  C   UNL     1      41.149   6.310  20.278  0.00  0.00    +0.000 A 
ATOM     28  C   UNL     1      42.437   6.536  20.663  0.00  0.00    +0.000 A 
ATOM     29  C   UNL     1      43.404   6.763  19.737  0.00  0.00    +0.000 A 
ATOM     30  C   UNL     1      43.097   6.768  18.393  0.00  0.00    +0.000 A 
ATOM     31  C   UNL     1      41.801   6.542  17.994  0.00  0.00    +0.000 A 
ENDBRANCH  25  26
ENDBRANCH  24  25
ENDBRANCH   6  24
TORSDOF 8
ENDMDL
MODEL 10
REMARK VINA RESULT:      -6.0      6.435     10.053
REMARK  Name = 
REMARK  8 active torsions:
REMARK  status: ('A' for Active; 'I' for Inactive)
REMARK    1  A    between atoms: O_2  and  C_3
REMARK    2  A    between atoms: C_8  and  O_9
REMARK    3  A    between atoms: O_9  and  C_10
REMARK    4  A    between atoms: C_10  and  C_11
REMARK    5  A    between atoms: C_17  and  C_18
REMARK    6  A    between atoms: C_22  and  O_23
REMARK    7  A    between atoms: O_23  and  C_24
REMARK    8  A    between atoms: C_24  and  C_25
REMARK                            x       y       z     vdW  Elec       q    Type
REMARK                         _______ _______ _______ _____ _____    ______ ____
ROOT
ATOM      1  C   UNL     1      38.215   5.100  15.643  0.00  0.00    +0.000 A 
ATOM      2  C   UNL     1      38.843   6.331  15.830  0.00  0.00    +0.000 A 
ATOM      3  C   UNL     1      39.345   6.695  17.080  0.00  0.00    +0.000 A 
ATOM      4  C   UNL     1      39.203   5.827  18.079  0.00  0.00    +0.000 A 
ATOM      5  C   UNL     1      38.586   4.610  17.906  0.00  0.00    +0.000 A 
ATOM      6  C   UNL     1      38.076   4.213  16.685  0.00  0.00    +0.000 A 
ATOM      7  C   UNL     1      39.756   6.164  19.541  0.00  0.00    +0.000 C 
ATOM      8  N   UNL     1      41.173   6.642  19.005  0.00  0.00    +0.000 NA
ATOM      9  C   UNL     1      41.077   7.818  18.306  0.00  0.00    +0.000 C 
ATOM     10  C   UNL     1      40.010   8.008  17.288  0.00  0.00    +0.000 C 
ENDROOT
BRANCH   7  11
ATOM     11  C   UNL     1      39.096   7.619  19.686  0.00  0.00    +0.000 A 
ATOM     12  C   UNL     1      37.882   7.855  19.188  0.00  0.00    +0.000 A 
ATOM     13  C   UNL     1      37.343   9.115  19.329  0.00  0.00    +0.000 A 
ATOM     14  C   UNL     1      38.026  10.124  19.964  0.00  0.00    +0.000 A 
ATOM     15  C   UNL     1      39.278   9.853  20.468  0.00  0.00    +0.000 A 
ATOM     16  C   UNL     1      39.801   8.580  20.317  0.00  0.00    +0.000 A 
BRANCH  15  17
ATOM     17  O   UNL     1      40.072  10.744  21.120  0.00  0.00    +0.000 OA
BRANCH  17  18
ATOM     18  C   UNL     1      41.356  11.159  20.963  0.00  0.00    +0.000 C 
BRANCH  18  19
ATOM     19  C   UNL     1      42.415  10.608  21.830  0.00  0.00    +0.000 C 
ATOM     20  C   UNL     1      43.054  11.606  22.760  0.00  0.00    +0.000 C 
ATOM     21  C   UNL     1      43.513  10.007  20.982  0.00  0.00    +0.000 C 
ENDBRANCH  18  19
ENDBRANCH  17  18
ENDBRANCH  15  17
ENDBRANCH   7  11
BRANCH   1  23
ATOM     22  C   UNL     1      36.506   5.353  13.950  0.00  0.00    +0.000 C 
ATOM     23  O   UNL     1      37.725   4.776  14.368  0.00  0.00    +0.000 OA
ENDBRANCH   1  23
BRANCH   6  24
ATOM     24  O   UNL     1      37.456   3.009  16.476  0.00  0.00    +0.000 OA
BRANCH  24  25
ATOM     25  C   UNL     1      36.094   2.756  16.638  0.00  0.00    +0.000 C 
BRANCH  25  26
ATOM     26  C   UNL     1      35.877   1.289  16.438  0.00  0.00    +0.000 A 
ATOM     27  C   UNL     1      36.527   0.600  15.465  0.00  0.00    +0.000 A 
ATOM     28  C   UNL     1      36.294  -0.736  15.325  0.00  0.00    +0.000 A 
ATOM     29  C   UNL     1      35.421  -1.374  16.147  0.00  0.00    +0.000 A 
ATOM     30  C   UNL     1      34.759  -0.680  17.137  0.00  0.00    +0.000 A 
ATOM     31  C   UNL     1      34.986   0.667  17.287  0.00  0.00    +0.000 A 
ENDBRANCH  25  26
ENDBRANCH  24  25
ENDBRANCH   6  24
TORSDOF 8
ENDMDL
