MODEL 1
REMARK VINA RESULT:      -7.0      0.000      0.000
REMARK  Name = 
REMARK  4 active torsions:
REMARK  status: ('A' for Active; 'I' for Inactive)
REMARK    1  A    between atoms: C_5  and  C_6
REMARK    2  A    between atoms: C_6  and  C_7
REMARK    3  A    between atoms: N_9  and  C_10
REMARK    4  A    between atoms: C_12  and  N_13
REMARK                            x       y       z     vdW  Elec       q    Type
REMARK                         _______ _______ _______ _____ _____    ______ ____
ROOT
ATOM      1  C   UNL     1      18.255  11.250  37.914  0.00  0.00    +0.000 C 
ATOM      2  O   UNL     1      18.474  12.437  37.564  0.00  0.00    +0.000 OA
ATOM      3  N   UNL     1      17.280  10.523  37.201  0.00  0.00    +0.000 NA
ENDROOT
BRANCH   3   4
ATOM      4  C   UNL     1      16.511  11.035  36.113  0.00  0.00    +0.000 A 
ATOM      5  C   UNL     1      15.493  11.936  36.241  0.00  0.00    +0.000 A 
ATOM      6  C   UNL     1      14.785  12.365  35.122  0.00  0.00    +0.000 A 
ATOM      7  C   UNL     1      15.135  11.859  33.877  0.00  0.00    +0.000 A 
ATOM      8  C   UNL     1      16.168  10.941  33.717  0.00  0.00    +0.000 A 
ATOM      9  C   UNL     1      16.845  10.539  34.850  0.00  0.00    +0.000 A 
ATOM     10  C   UNL     1      17.963   9.561  34.719  0.00  0.00    +0.000 C 
BRANCH   6  11
ATOM     11  N   UNL     1      13.720  13.290  35.213  0.00  0.00    +0.000 N 
ATOM     12  O   UNL     1      13.583  14.169  34.350  0.00  0.00    +0.000 OA
ATOM     13  O   UNL     1      12.838  13.228  36.245  0.00  0.00    +0.000 OA
ENDBRANCH   6  11
ENDBRANCH   3   4
BRANCH   1  14
ATOM     14  C   UNL     1      19.041  10.718  39.037  0.00  0.00    +0.000 C 
BRANCH  14  19
ATOM     15  C   UNL     1      17.057   5.895  41.429  0.00  0.00    +0.000 C 
ATOM     16  C   UNL     1      17.576   7.156  40.807  0.00  0.00    +0.000 A 
ATOM     17  C   UNL     1      18.669   7.126  40.010  0.00  0.00    +0.000 A 
ATOM     18  C   UNL     1      19.151   8.306  39.424  0.00  0.00    +0.000 A 
ATOM     19  C   UNL     1      18.512   9.504  39.662  0.00  0.00    +0.000 A 
ATOM     20  C   UNL     1      17.413   9.520  40.468  0.00  0.00    +0.000 A 
ATOM     21  C   UNL     1      16.926   8.348  41.053  0.00  0.00    +0.000 A 
ENDBRANCH  14  19
ENDBRANCH   1  14
TORSDOF 4
ENDMDL
MODEL 2
REMARK VINA RESULT:      -6.9      2.891      4.474
REMARK  Name = 
REMARK  4 active torsions:
REMARK  status: ('A' for Active; 'I' for Inactive)
REMARK    1  A    between atoms: C_5  and  C_6
REMARK    2  A    between atoms: C_6  and  C_7
REMARK    3  A    between atoms: N_9  and  C_10
REMARK    4  A    between atoms: C_12  and  N_13
REMARK                            x       y       z     vdW  Elec       q    Type
REMARK                         _______ _______ _______ _____ _____    ______ ____
ROOT
ATOM      1  C   UNL     1      18.483  11.309  37.742  0.00  0.00    +0.000 C 
ATOM      2  O   UNL     1      18.467  12.548  37.528  0.00  0.00    +0.000 OA
ATOM      3  N   UNL     1      17.458  10.529  37.170  0.00  0.00    +0.000 NA
ENDROOT
BRANCH   3   4
ATOM      4  C   UNL     1      16.391  11.038  36.370  0.00  0.00    +0.000 A 
ATOM      5  C   UNL     1      16.476  11.277  35.029  0.00  0.00    +0.000 A 
ATOM      6  C   UNL     1      15.386  11.793  34.334  0.00  0.00    +0.000 A 
ATOM      7  C   UNL     1      14.214  12.058  35.031  0.00  0.00    +0.000 A 
ATOM      8  C   UNL     1      14.101  11.824  36.398  0.00  0.00    +0.000 A 
ATOM      9  C   UNL     1      15.202  11.313  37.052  0.00  0.00    +0.000 A 
ATOM     10  C   UNL     1      15.118  11.043  38.515  0.00  0.00    +0.000 C 
BRANCH   6  11
ATOM     11  N   UNL     1      15.435  12.061  32.947  0.00  0.00    +0.000 N 
ATOM     12  O   UNL     1      14.650  12.876  32.441  0.00  0.00    +0.000 OA
ATOM     13  O   UNL     1      16.340  11.429  32.154  0.00  0.00    +0.000 OA
ENDBRANCH   6  11
ENDBRANCH   3   4
BRANCH   1  14
ATOM     14  C   UNL     1      19.577  10.779  38.570  0.00  0.00    +0.000 C 
BRANCH  14  19
ATOM     15  C   UNL     1      24.710  10.597  36.014  0.00  0.00    +0.000 C 
ATOM     16  C   UNL     1      23.369  10.648  36.680  0.00  0.00    +0.000 A 
ATOM     17  C   UNL     1      22.381   9.809  36.292  0.00  0.00    +0.000 A 
ATOM     18  C   UNL     1      21.127   9.853  36.921  0.00  0.00    +0.000 A 
ATOM     19  C   UNL     1      20.897  10.757  37.936  0.00  0.00    +0.000 A 
ATOM     20  C   UNL     1      21.901  11.596  38.316  0.00  0.00    +0.000 A 
ATOM     21  C   UNL     1      23.153  11.557  37.696  0.00  0.00    +0.000 A 
ENDBRANCH  14  19
ENDBRANCH   1  14
TORSDOF 4
ENDMDL
MODEL 3
REMARK VINA RESULT:      -6.8      2.577      7.425
REMARK  Name = 
REMARK  4 active torsions:
REMARK  status: ('A' for Active; 'I' for Inactive)
REMARK    1  A    between atoms: C_5  and  C_6
REMARK    2  A    between atoms: C_6  and  C_7
REMARK    3  A    between atoms: N_9  and  C_10
REMARK    4  A    between atoms: C_12  and  N_13
REMARK                            x       y       z     vdW  Elec       q    Type
REMARK                         _______ _______ _______ _____ _____    ______ ____
ROOT
ATOM      1  C   UNL     1      14.672  11.968  36.675  0.00  0.00    +0.000 C 
ATOM      2  O   UNL     1      14.003  11.072  37.250  0.00  0.00    +0.000 OA
ATOM      3  N   UNL     1      16.077  11.897  36.760  0.00  0.00    +0.000 NA
ENDROOT
BRANCH   3   4
ATOM      4  C   UNL     1      16.805  10.889  37.460  0.00  0.00    +0.000 A 
ATOM      5  C   UNL     1      16.726  10.670  38.806  0.00  0.00    +0.000 A 
ATOM      6  C   UNL     1      17.490   9.673  39.405  0.00  0.00    +0.000 A 
ATOM      7  C   UNL     1      18.330   8.906  38.607  0.00  0.00    +0.000 A 
ATOM      8  C   UNL     1      18.430   9.107  37.234  0.00  0.00    +0.000 A 
ATOM      9  C   UNL     1      17.658  10.105  36.678  0.00  0.00    +0.000 A 
ATOM     10  C   UNL     1      17.732  10.347  35.208  0.00  0.00    +0.000 C 
BRANCH   6  11
ATOM     11  N   UNL     1      17.443   9.420  40.795  0.00  0.00    +0.000 N 
ATOM     12  O   UNL     1      16.400   9.626  41.431  0.00  0.00    +0.000 OA
ATOM     13  O   UNL     1      18.538   8.949  41.447  0.00  0.00    +0.000 OA
ENDBRANCH   6  11
ENDBRANCH   3   4
BRANCH   1  14
ATOM     14  C   UNL     1      13.927  13.012  35.956  0.00  0.00    +0.000 C 
BRANCH  14  19
ATOM     15  C   UNL     1      14.652  13.269  30.270  0.00  0.00    +0.000 C 
ATOM     16  C   UNL     1      14.466  13.202  31.756  0.00  0.00    +0.000 A 
ATOM     17  C   UNL     1      13.754  14.156  32.399  0.00  0.00    +0.000 A 
ATOM     18  C   UNL     1      13.576  14.090  33.789  0.00  0.00    +0.000 A 
ATOM     19  C   UNL     1      14.130  13.050  34.506  0.00  0.00    +0.000 A 
ATOM     20  C   UNL     1      14.846  12.097  33.845  0.00  0.00    +0.000 A 
ATOM     21  C   UNL     1      15.026  12.155  32.460  0.00  0.00    +0.000 A 
ENDBRANCH  14  19
ENDBRANCH   1  14
TORSDOF 4
ENDMDL
MODEL 4
REMARK VINA RESULT:      -6.6     19.314     20.691
REMARK  Name = 
REMARK  4 active torsions:
REMARK  status: ('A' for Active; 'I' for Inactive)
REMARK    1  A    between atoms: C_5  and  C_6
REMARK    2  A    between atoms: C_6  and  C_7
REMARK    3  A    between atoms: N_9  and  C_10
REMARK    4  A    between atoms: C_12  and  N_13
REMARK                            x       y       z     vdW  Elec       q    Type
REMARK                         _______ _______ _______ _____ _____    ______ ____
ROOT
ATOM      1  C   UNL     1      31.014  23.067  27.273  0.00  0.00    +0.000 C 
ATOM      2  O   UNL     1      30.860  24.295  27.053  0.00  0.00    +0.000 OA
ATOM      3  N   UNL     1      30.145  22.167  26.623  0.00  0.00    +0.000 NA
ENDROOT
BRANCH   3   4
ATOM      4  C   UNL     1      29.093  22.543  25.736  0.00  0.00    +0.000 A 
ATOM      5  C   UNL     1      29.268  22.883  24.425  0.00  0.00    +0.000 A 
ATOM      6  C   UNL     1      28.180  23.255  23.640  0.00  0.00    +0.000 A 
ATOM      7  C   UNL     1      26.917  23.271  24.216  0.00  0.00    +0.000 A 
ATOM      8  C   UNL     1      26.709  22.929  25.549  0.00  0.00    +0.000 A 
ATOM      9  C   UNL     1      27.811  22.567  26.294  0.00  0.00    +0.000 A 
ATOM     10  C   UNL     1      27.628  22.187  27.724  0.00  0.00    +0.000 C 
BRANCH   6  11
ATOM     11  N   UNL     1      28.321  23.621  22.282  0.00  0.00    +0.000 N 
ATOM     12  O   UNL     1      27.349  23.558  21.516  0.00  0.00    +0.000 OA
ATOM     13  O   UNL     1      29.521  24.044  21.803  0.00  0.00    +0.000 OA
ENDBRANCH   6  11
ENDBRANCH   3   4
BRANCH   1  14
ATOM     14  C   UNL     1      32.094  22.674  28.190  0.00  0.00    +0.000 C 
BRANCH  14  19
ATOM     15  C   UNL     1      30.561  21.270  33.538  0.00  0.00    +0.000 C 
ATOM     16  C   UNL     1      30.962  21.640  32.142  0.00  0.00    +0.000 A 
ATOM     17  C   UNL     1      32.098  21.142  31.602  0.00  0.00    +0.000 A 
ATOM     18  C   UNL     1      32.470  21.484  30.294  0.00  0.00    +0.000 A 
ATOM     19  C   UNL     1      31.677  22.335  29.552  0.00  0.00    +0.000 A 
ATOM     20  C   UNL     1      30.536  22.830  30.109  0.00  0.00    +0.000 A 
ATOM     21  C   UNL     1      30.158  22.492  31.411  0.00  0.00    +0.000 A 
ENDBRANCH  14  19
ENDBRANCH   1  14
TORSDOF 4
ENDMDL
MODEL 5
REMARK VINA RESULT:      -6.5     18.937     20.136
REMARK  Name = 
REMARK  4 active torsions:
REMARK  status: ('A' for Active; 'I' for Inactive)
REMARK    1  A    between atoms: C_5  and  C_6
REMARK    2  A    between atoms: C_6  and  C_7
REMARK    3  A    between atoms: N_9  and  C_10
REMARK    4  A    between atoms: C_12  and  N_13
REMARK                            x       y       z     vdW  Elec       q    Type
REMARK                         _______ _______ _______ _____ _____    ______ ____
ROOT
ATOM      1  C   UNL     1      28.471  23.201  28.677  0.00  0.00    +0.000 C 
ATOM      2  O   UNL     1      28.408  24.420  28.377  0.00  0.00    +0.000 OA
ATOM      3  N   UNL     1      28.393  22.260  27.630  0.00  0.00    +0.000 NA
ENDROOT
BRANCH   3   4
ATOM      4  C   UNL     1      28.238  22.584  26.249  0.00  0.00    +0.000 A 
ATOM      5  C   UNL     1      27.042  22.841  25.643  0.00  0.00    +0.000 A 
ATOM      6  C   UNL     1      26.987  23.130  24.283  0.00  0.00    +0.000 A 
ATOM      7  C   UNL     1      28.171  23.152  23.557  0.00  0.00    +0.000 A 
ATOM      8  C   UNL     1      29.404  22.894  24.148  0.00  0.00    +0.000 A 
ATOM      9  C   UNL     1      29.417  22.611  25.498  0.00  0.00    +0.000 A 
ATOM     10  C   UNL     1      30.719  22.335  26.170  0.00  0.00    +0.000 C 
BRANCH   6  11
ATOM     11  N   UNL     1      25.769  23.395  23.617  0.00  0.00    +0.000 N 
ATOM     12  O   UNL     1      24.951  24.188  24.105  0.00  0.00    +0.000 OA
ATOM     13  O   UNL     1      25.480  22.784  22.438  0.00  0.00    +0.000 OA
ENDBRANCH   6  11
ENDBRANCH   3   4
BRANCH   1  14
ATOM     14  C   UNL     1      28.626  22.861  30.099  0.00  0.00    +0.000 C 
BRANCH  14  19
ATOM     15  C   UNL     1      33.799  21.036  31.782  0.00  0.00    +0.000 C 
ATOM     16  C   UNL     1      32.447  21.510  31.340  0.00  0.00    +0.000 A 
ATOM     17  C   UNL     1      31.379  21.391  32.161  0.00  0.00    +0.000 A 
ATOM     18  C   UNL     1      30.116  21.841  31.748  0.00  0.00    +0.000 A 
ATOM     19  C   UNL     1      29.958  22.404  30.500  0.00  0.00    +0.000 A 
ATOM     20  C   UNL     1      31.043  22.516  29.683  0.00  0.00    +0.000 A 
ATOM     21  C   UNL     1      32.305  22.072  30.087  0.00  0.00    +0.000 A 
ENDBRANCH  14  19
ENDBRANCH   1  14
TORSDOF 4
ENDMDL
MODEL 6
REMARK VINA RESULT:      -6.5      3.066      7.642
REMARK  Name = 
REMARK  4 active torsions:
REMARK  status: ('A' for Active; 'I' for Inactive)
REMARK    1  A    between atoms: C_5  and  C_6
REMARK    2  A    between atoms: C_6  and  C_7
REMARK    3  A    between atoms: N_9  and  C_10
REMARK    4  A    between atoms: C_12  and  N_13
REMARK                            x       y       z     vdW  Elec       q    Type
REMARK                         _______ _______ _______ _____ _____    ______ ____
ROOT
ATOM      1  C   UNL     1      18.040  10.747  37.133  0.00  0.00    +0.000 C 
ATOM      2  O   UNL     1      18.490  11.888  37.407  0.00  0.00    +0.000 OA
ATOM      3  N   UNL     1      18.911   9.646  37.264  0.00  0.00    +0.000 NA
ENDROOT
BRANCH   3   4
ATOM      4  C   UNL     1      20.274   9.726  37.678  0.00  0.00    +0.000 A 
ATOM      5  C   UNL     1      21.315  10.055  36.858  0.00  0.00    +0.000 A 
ATOM      6  C   UNL     1      22.617  10.089  37.348  0.00  0.00    +0.000 A 
ATOM      7  C   UNL     1      22.835   9.784  38.685  0.00  0.00    +0.000 A 
ATOM      8  C   UNL     1      21.793   9.446  39.544  0.00  0.00    +0.000 A 
ATOM      9  C   UNL     1      20.517   9.422  39.021  0.00  0.00    +0.000 A 
ATOM     10  C   UNL     1      19.374   9.070  39.911  0.00  0.00    +0.000 C 
BRANCH   6  11
ATOM     11  N   UNL     1      23.722  10.418  36.530  0.00  0.00    +0.000 N 
ATOM     12  O   UNL     1      24.083   9.644  35.631  0.00  0.00    +0.000 OA
ATOM     13  O   UNL     1      24.398  11.581  36.719  0.00  0.00    +0.000 OA
ENDBRANCH   6  11
ENDBRANCH   3   4
BRANCH   1  14
ATOM     14  C   UNL     1      16.637  10.659  36.701  0.00  0.00    +0.000 C 
BRANCH  14  19
ATOM     15  C   UNL     1      15.607  11.637  31.142  0.00  0.00    +0.000 C 
ATOM     16  C   UNL     1      15.879  11.382  32.594  0.00  0.00    +0.000 A 
ATOM     17  C   UNL     1      15.155  12.015  33.546  0.00  0.00    +0.000 A 
ATOM     18  C   UNL     1      15.407  11.772  34.904  0.00  0.00    +0.000 A 
ATOM     19  C   UNL     1      16.398  10.888  35.274  0.00  0.00    +0.000 A 
ATOM     20  C   UNL     1      17.120  10.259  34.304  0.00  0.00    +0.000 A 
ATOM     21  C   UNL     1      16.874  10.494  32.949  0.00  0.00    +0.000 A 
ENDBRANCH  14  19
ENDBRANCH   1  14
TORSDOF 4
ENDMDL
MODEL 7
REMARK VINA RESULT:      -6.4      3.436      7.679
REMARK  Name = 
REMARK  4 active torsions:
REMARK  status: ('A' for Active; 'I' for Inactive)
REMARK    1  A    between atoms: C_5  and  C_6
REMARK    2  A    between atoms: C_6  and  C_7
REMARK    3  A    between atoms: N_9  and  C_10
REMARK    4  A    between atoms: C_12  and  N_13
REMARK                            x       y       z     vdW  Elec       q    Type
REMARK                         _______ _______ _______ _____ _____    ______ ____
ROOT
ATOM      1  C   UNL     1      18.034   9.799  38.315  0.00  0.00    +0.000 C 
ATOM      2  O   UNL     1      18.163   8.852  37.498  0.00  0.00    +0.000 OA
ATOM      3  N   UNL     1      18.008   9.485  39.689  0.00  0.00    +0.000 NA
ENDROOT
BRANCH   3   4
ATOM      4  C   UNL     1      18.110   8.168  40.229  0.00  0.00    +0.000 A 
ATOM      5  C   UNL     1      19.192   7.349  40.076  0.00  0.00    +0.000 A 
ATOM      6  C   UNL     1      19.193   6.070  40.625  0.00  0.00    +0.000 A 
ATOM      7  C   UNL     1      18.074   5.646  41.331  0.00  0.00    +0.000 A 
ATOM      8  C   UNL     1      16.959   6.460  41.503  0.00  0.00    +0.000 A 
ATOM      9  C   UNL     1      16.995   7.720  40.944  0.00  0.00    +0.000 A 
ATOM     10  C   UNL     1      15.821   8.623  41.112  0.00  0.00    +0.000 C 
BRANCH   6  11
ATOM     11  N   UNL     1      20.289   5.190  40.482  0.00  0.00    +0.000 N 
ATOM     12  O   UNL     1      21.423   5.544  40.836  0.00  0.00    +0.000 OA
ATOM     13  O   UNL     1      20.114   3.948  39.957  0.00  0.00    +0.000 OA
ENDBRANCH   6  11
ENDBRANCH   3   4
BRANCH   1  14
ATOM     14  C   UNL     1      17.923  11.158  37.764  0.00  0.00    +0.000 C 
BRANCH  14  19
ATOM     15  C   UNL     1      12.572  12.776  36.475  0.00  0.00    +0.000 C 
ATOM     16  C   UNL     1      13.970  12.356  36.812  0.00  0.00    +0.000 A 
ATOM     17  C   UNL     1      14.197  11.475  37.814  0.00  0.00    +0.000 A 
ATOM     18  C   UNL     1      15.506  11.079  38.126  0.00  0.00    +0.000 A 
ATOM     19  C   UNL     1      16.569  11.590  37.412  0.00  0.00    +0.000 A 
ATOM     20  C   UNL     1      16.326  12.477  36.406  0.00  0.00    +0.000 A 
ATOM     21  C   UNL     1      15.025  12.875  36.089  0.00  0.00    +0.000 A 
ENDBRANCH  14  19
ENDBRANCH   1  14
TORSDOF 4
ENDMDL
MODEL 8
REMARK VINA RESULT:      -6.4      4.074      8.167
REMARK  Name = 
REMARK  4 active torsions:
REMARK  status: ('A' for Active; 'I' for Inactive)
REMARK    1  A    between atoms: C_5  and  C_6
REMARK    2  A    between atoms: C_6  and  C_7
REMARK    3  A    between atoms: N_9  and  C_10
REMARK    4  A    between atoms: C_12  and  N_13
REMARK                            x       y       z     vdW  Elec       q    Type
REMARK                         _______ _______ _______ _____ _____    ______ ____
ROOT
ATOM      1  C   UNL     1      18.765   8.857  40.062  0.00  0.00    +0.000 C 
ATOM      2  O   UNL     1      19.898   8.690  40.581  0.00  0.00    +0.000 OA
ATOM      3  N   UNL     1      17.862   7.774  40.092  0.00  0.00    +0.000 NA
ENDROOT
BRANCH   3   4
ATOM      4  C   UNL     1      18.137   6.495  40.661  0.00  0.00    +0.000 A 
ATOM      5  C   UNL     1      19.002   5.581  40.130  0.00  0.00    +0.000 A 
ATOM      6  C   UNL     1      19.192   4.348  40.747  0.00  0.00    +0.000 A 
ATOM      7  C   UNL     1      18.487   4.068  41.910  0.00  0.00    +0.000 A 
ATOM      8  C   UNL     1      17.599   4.980  42.473  0.00  0.00    +0.000 A 
ATOM      9  C   UNL     1      17.437   6.191  41.832  0.00  0.00    +0.000 A 
ATOM     10  C   UNL     1      16.500   7.197  42.407  0.00  0.00    +0.000 C 
BRANCH   6  11
ATOM     11  N   UNL     1      20.073   3.373  40.226  0.00  0.00    +0.000 N 
ATOM     12  O   UNL     1      21.094   3.718  39.616  0.00  0.00    +0.000 OA
ATOM     13  O   UNL     1      19.809   2.049  40.388  0.00  0.00    +0.000 OA
ENDBRANCH   6  11
ENDBRANCH   3   4
BRANCH   1  14
ATOM     14  C   UNL     1      18.478  10.171  39.470  0.00  0.00    +0.000 C 
BRANCH  14  19
ATOM     15  C   UNL     1      17.357  10.095  33.844  0.00  0.00    +0.000 C 
ATOM     16  C   UNL     1      17.647  10.113  35.314  0.00  0.00    +0.000 A 
ATOM     17  C   UNL     1      18.789   9.568  35.792  0.00  0.00    +0.000 A 
ATOM     18  C   UNL     1      19.063   9.590  37.168  0.00  0.00    +0.000 A 
ATOM     19  C   UNL     1      18.163  10.167  38.040  0.00  0.00    +0.000 A 
ATOM     20  C   UNL     1      17.017  10.711  37.544  0.00  0.00    +0.000 A 
ATOM     21  C   UNL     1      16.738  10.695  36.175  0.00  0.00    +0.000 A 
ENDBRANCH  14  19
ENDBRANCH   1  14
TORSDOF 4
ENDMDL
MODEL 9
REMARK VINA RESULT:      -6.4      3.240      7.883
REMARK  Name = 
REMARK  4 active torsions:
REMARK  status: ('A' for Active; 'I' for Inactive)
REMARK    1  A    between atoms: C_5  and  C_6
REMARK    2  A    between atoms: C_6  and  C_7
REMARK    3  A    between atoms: N_9  and  C_10
REMARK    4  A    between atoms: C_12  and  N_13
REMARK                            x       y       z     vdW  Elec       q    Type
REMARK                         _______ _______ _______ _____ _____    ______ ____
ROOT
ATOM      1  C   UNL     1      17.405   9.973  34.610  0.00  0.00    +0.000 C 
ATOM      2  O   UNL     1      18.325  10.691  34.142  0.00  0.00    +0.000 OA
ATOM      3  N   UNL     1      17.536   9.517  35.938  0.00  0.00    +0.000 NA
ENDROOT
BRANCH   3   4
ATOM      4  C   UNL     1      18.641   9.802  36.795  0.00  0.00    +0.000 A 
ATOM      5  C   UNL     1      19.952   9.649  36.447  0.00  0.00    +0.000 A 
ATOM      6  C   UNL     1      20.963   9.935  37.359  0.00  0.00    +0.000 A 
ATOM      7  C   UNL     1      20.612  10.380  38.627  0.00  0.00    +0.000 A 
ATOM      8  C   UNL     1      19.284  10.546  39.009  0.00  0.00    +0.000 A 
ATOM      9  C   UNL     1      18.311  10.251  38.078  0.00  0.00    +0.000 A 
ATOM     10  C   UNL     1      16.877  10.422  38.447  0.00  0.00    +0.000 C 
BRANCH   6  11
ATOM     11  N   UNL     1      22.332   9.782  37.040  0.00  0.00    +0.000 N 
ATOM     12  O   UNL     1      22.780  10.247  35.982  0.00  0.00    +0.000 OA
ATOM     13  O   UNL     1      23.169   9.126  37.886  0.00  0.00    +0.000 OA
ENDBRANCH   6  11
ENDBRANCH   3   4
BRANCH   1  14
ATOM     14  C   UNL     1      16.267   9.672  33.729  0.00  0.00    +0.000 C 
BRANCH  14  19
ATOM     15  C   UNL     1      13.848  14.237  31.234  0.00  0.00    +0.000 C 
ATOM     16  C   UNL     1      14.483  13.045  31.885  0.00  0.00    +0.000 A 
ATOM     17  C   UNL     1      14.468  12.913  33.231  0.00  0.00    +0.000 A 
ATOM     18  C   UNL     1      15.057  11.794  33.839  0.00  0.00    +0.000 A 
ATOM     19  C   UNL     1      15.659  10.825  33.063  0.00  0.00    +0.000 A 
ATOM     20  C   UNL     1      15.668  10.973  31.709  0.00  0.00    +0.000 A 
ATOM     21  C   UNL     1      15.081  12.083  31.096  0.00  0.00    +0.000 A 
ENDBRANCH  14  19
ENDBRANCH   1  14
TORSDOF 4
ENDMDL
MODEL 10
REMARK VINA RESULT:      -6.3     21.466     23.392
REMARK  Name = 
REMARK  4 active torsions:
REMARK  status: ('A' for Active; 'I' for Inactive)
REMARK    1  A    between atoms: C_5  and  C_6
REMARK    2  A    between atoms: C_6  and  C_7
REMARK    3  A    between atoms: N_9  and  C_10
REMARK    4  A    between atoms: C_12  and  N_13
REMARK                            x       y       z     vdW  Elec       q    Type
REMARK                         _______ _______ _______ _____ _____    ______ ____
ROOT
ATOM      1  C   UNL     1      21.987  -6.805  24.875  0.00  0.00    +0.000 C 
ATOM      2  O   UNL     1      22.396  -7.750  25.596  0.00  0.00    +0.000 OA
ATOM      3  N   UNL     1      20.630  -6.435  24.982  0.00  0.00    +0.000 NA
ENDROOT
BRANCH   3   4
ATOM      4  C   UNL     1      19.678  -7.058  25.843  0.00  0.00    +0.000 A 
ATOM      5  C   UNL     1      19.534  -8.407  25.991  0.00  0.00    +0.000 A 
ATOM      6  C   UNL     1      18.562  -8.925  26.842  0.00  0.00    +0.000 A 
ATOM      7  C   UNL     1      17.745  -8.042  27.537  0.00  0.00    +0.000 A 
ATOM      8  C   UNL     1      17.870  -6.662  27.406  0.00  0.00    +0.000 A 
ATOM      9  C   UNL     1      18.844  -6.188  26.552  0.00  0.00    +0.000 A 
ATOM     10  C   UNL     1      19.013  -4.716  26.389  0.00  0.00    +0.000 C 
BRANCH   6  11
ATOM     11  N   UNL     1      18.376 -10.315  27.017  0.00  0.00    +0.000 N 
ATOM     12  O   UNL     1      17.255 -10.763  27.299  0.00  0.00    +0.000 OA
ATOM     13  O   UNL     1      19.421 -11.173  26.880  0.00  0.00    +0.000 OA
ENDBRANCH   6  11
ENDBRANCH   3   4
BRANCH   1  14
ATOM     14  C   UNL     1      22.962  -6.162  23.982  0.00  0.00    +0.000 C 
BRANCH  14  19
ATOM     15  C   UNL     1      26.828  -9.627  21.538  0.00  0.00    +0.000 C 
ATOM     16  C   UNL     1      25.816  -8.725  22.178  0.00  0.00    +0.000 A 
ATOM     17  C   UNL     1      26.211  -7.757  23.038  0.00  0.00    +0.000 A 
ATOM     18  C   UNL     1      25.264  -6.909  23.632  0.00  0.00    +0.000 A 
ATOM     19  C   UNL     1      23.924  -7.062  23.343  0.00  0.00    +0.000 A 
ATOM     20  C   UNL     1      23.542  -8.042  22.477  0.00  0.00    +0.000 A 
ATOM     21  C   UNL     1      24.479  -8.889  21.879  0.00  0.00    +0.000 A 
ENDBRANCH  14  19
ENDBRANCH   1  14
TORSDOF 4
ENDMDL
