MODEL 1
REMARK VINA RESULT:      -8.3      0.000      0.000
REMARK  Name = 
REMARK  8 active torsions:
REMARK  status: ('A' for Active; 'I' for Inactive)
REMARK    1  A    between atoms: O_2  and  C_3
REMARK    2  A    between atoms: C_9  and  C_10
REMARK    3  A    between atoms: N_12  and  C_13
REMARK    4  A    between atoms: C_13  and  C_15
REMARK    5  A    between atoms: C_15  and  C_16
REMARK    6  A    between atoms: C_16  and  C_17
REMARK    7  A    between atoms: N_25  and  C_26
REMARK    8  A    between atoms: C_26  and  C_27
REMARK                            x       y       z     vdW  Elec       q    Type
REMARK                         _______ _______ _______ _____ _____    ______ ____
ROOT
ATOM      1  C   UNL     1      35.417   0.429  16.479  0.00  0.00    +0.000 A 
ATOM      2  C   UNL     1      35.111   1.691  16.942  0.00  0.00    +0.000 A 
ATOM      3  C   UNL     1      35.937   2.727  16.567  0.00  0.00    +0.000 A 
ATOM      4  C   UNL     1      37.054   2.532  15.744  0.00  0.00    +0.000 A 
ATOM      5  C   UNL     1      37.337   1.266  15.296  0.00  0.00    +0.000 A 
ATOM      6  C   UNL     1      36.515   0.227  15.670  0.00  0.00    +0.000 A 
ATOM      7  C   UNL     1      38.468   1.300  14.506  0.00  0.00    +0.000 A 
ATOM      8  C   UNL     1      38.842   2.615  14.502  0.00  0.00    +0.000 A 
ATOM      9  C   UNL     1      40.053   3.088  13.737  0.00  0.00    +0.000 C 
ATOM     10  N   UNL     1      37.999   3.341  15.240  0.00  0.00    +0.000 N 
ENDROOT
BRANCH   7  11
ATOM     11  C   UNL     1      39.098   0.143  13.837  0.00  0.00    +0.000 C 
ATOM     12  O   UNL     1      38.710  -0.181  12.699  0.00  0.00    +0.000 OA
ATOM     13  N   UNL     1      40.105  -0.573  14.465  0.00  0.00    +0.000 NA
BRANCH  13  14
ATOM     14  C   UNL     1      40.798  -1.791  13.818  0.00  0.00    +0.000 C 
ATOM     15  C   UNL     1      42.299  -1.370  14.411  0.00  0.00    +0.000 C 
BRANCH  14  16
ATOM     16  C   UNL     1      40.445  -2.848  15.002  0.00  0.00    +0.000 C 
BRANCH  16  17
ATOM     17  C   UNL     1      39.009  -2.931  15.244  0.00  0.00    +0.000 C 
BRANCH  17  18
ATOM     18  C   UNL     1      38.784  -3.022  16.705  0.00  0.00    +0.000 A 
ATOM     19  C   UNL     1      38.450  -1.917  17.448  0.00  0.00    +0.000 A 
ATOM     20  C   UNL     1      38.246  -1.998  18.805  0.00  0.00    +0.000 A 
ATOM     21  C   UNL     1      38.362  -3.165  19.488  0.00  0.00    +0.000 A 
ATOM     22  C   UNL     1      38.697  -4.280  18.751  0.00  0.00    +0.000 A 
ATOM     23  C   UNL     1      38.909  -4.223  17.375  0.00  0.00    +0.000 A 
ENDBRANCH  17  18
ENDBRANCH  16  17
ENDBRANCH  14  16
ENDBRANCH  13  14
ENDBRANCH   7  11
BRANCH   1  25
ATOM     24  C   UNL     1      34.964  -1.949  16.395  0.00  0.00    +0.000 C 
ATOM     25  O   UNL     1      34.620  -0.651  16.824  0.00  0.00    +0.000 OA
ENDBRANCH   1  25
BRANCH  10  26
ATOM     26  C   UNL     1      38.084   4.728  15.475  0.00  0.00    +0.000 C 
BRANCH  26  27
ATOM     27  C   UNL     1      38.872   5.216  16.590  0.00  0.00    +0.000 A 
ATOM     28  C   UNL     1      38.476   5.199  17.922  0.00  0.00    +0.000 A 
ATOM     29  C   UNL     1      39.346   5.649  18.891  0.00  0.00    +0.000 A 
ATOM     30  C   UNL     1      40.609   6.123  18.628  0.00  0.00    +0.000 A 
ATOM     31  C   UNL     1      41.015   6.145  17.314  0.00  0.00    +0.000 A 
ATOM     32  C   UNL     1      40.135   5.690  16.325  0.00  0.00    +0.000 A 
ATOM     33  O   UNL     1      42.305   6.654  17.275  0.00  0.00    +0.000 OA
ATOM     34  C   UNL     1      42.688   7.143  18.550  0.00  0.00    +0.000 C 
ATOM     35  O   UNL     1      41.663   6.620  19.371  0.00  0.00    +0.000 OA
ENDBRANCH  26  27
ENDBRANCH  10  26
TORSDOF 8
ENDMDL
MODEL 2
REMARK VINA RESULT:      -8.1      2.893      7.558
REMARK  Name = 
REMARK  8 active torsions:
REMARK  status: ('A' for Active; 'I' for Inactive)
REMARK    1  A    between atoms: O_2  and  C_3
REMARK    2  A    between atoms: C_9  and  C_10
REMARK    3  A    between atoms: N_12  and  C_13
REMARK    4  A    between atoms: C_13  and  C_15
REMARK    5  A    between atoms: C_15  and  C_16
REMARK    6  A    between atoms: C_16  and  C_17
REMARK    7  A    between atoms: N_25  and  C_26
REMARK    8  A    between atoms: C_26  and  C_27
REMARK                            x       y       z     vdW  Elec       q    Type
REMARK                         _______ _______ _______ _____ _____    ______ ____
ROOT
ATOM      1  C   UNL     1      38.567  -2.414  16.530  0.00  0.00    +0.000 A 
ATOM      2  C   UNL     1      39.654  -3.194  16.196  0.00  0.00    +0.000 A 
ATOM      3  C   UNL     1      40.575  -2.664  15.320  0.00  0.00    +0.000 A 
ATOM      4  C   UNL     1      40.436  -1.381  14.775  0.00  0.00    +0.000 A 
ATOM      5  C   UNL     1      39.345  -0.625  15.124  0.00  0.00    +0.000 A 
ATOM      6  C   UNL     1      38.421  -1.151  15.998  0.00  0.00    +0.000 A 
ATOM      7  C   UNL     1      39.407   0.594  14.481  0.00  0.00    +0.000 A 
ATOM      8  C   UNL     1      40.558   0.535  13.746  0.00  0.00    +0.000 A 
ATOM      9  C   UNL     1      41.004   1.690  12.884  0.00  0.00    +0.000 C 
ATOM     10  N   UNL     1      41.164  -0.641  13.924  0.00  0.00    +0.000 N 
ENDROOT
BRANCH   7  11
ATOM     11  C   UNL     1      38.419   1.688  14.592  0.00  0.00    +0.000 C 
ATOM     12  O   UNL     1      37.547   1.805  13.711  0.00  0.00    +0.000 OA
ATOM     13  N   UNL     1      38.462   2.571  15.659  0.00  0.00    +0.000 NA
BRANCH  13  14
ATOM     14  C   UNL     1      37.460   3.734  15.828  0.00  0.00    +0.000 C 
ATOM     15  C   UNL     1      36.459   2.850  16.827  0.00  0.00    +0.000 C 
BRANCH  14  16
ATOM     16  C   UNL     1      38.261   4.489  17.024  0.00  0.00    +0.000 C 
BRANCH  16  17
ATOM     17  C   UNL     1      39.362   5.297  16.513  0.00  0.00    +0.000 C 
BRANCH  17  18
ATOM     18  C   UNL     1      40.124   5.834  17.665  0.00  0.00    +0.000 A 
ATOM     19  C   UNL     1      41.424   6.252  17.530  0.00  0.00    +0.000 A 
ATOM     20  C   UNL     1      42.135   6.746  18.597  0.00  0.00    +0.000 A 
ATOM     21  C   UNL     1      41.599   6.850  19.841  0.00  0.00    +0.000 A 
ATOM     22  C   UNL     1      40.295   6.433  19.986  0.00  0.00    +0.000 A 
ATOM     23  C   UNL     1      39.554   5.928  18.919  0.00  0.00    +0.000 A 
ENDBRANCH  17  18
ENDBRANCH  16  17
ENDBRANCH  14  16
ENDBRANCH  13  14
ENDBRANCH   7  11
BRANCH   1  25
ATOM     24  C   UNL     1      36.269  -2.475  17.292  0.00  0.00    +0.000 C 
ATOM     25  O   UNL     1      37.609  -2.897  17.408  0.00  0.00    +0.000 OA
ENDBRANCH   1  25
BRANCH  10  26
ATOM     26  C   UNL     1      42.363  -1.058  13.313  0.00  0.00    +0.000 C 
BRANCH  26  27
ATOM     27  C   UNL     1      43.574  -1.151  14.106  0.00  0.00    +0.000 A 
ATOM     28  C   UNL     1      44.023  -0.189  15.002  0.00  0.00    +0.000 A 
ATOM     29  C   UNL     1      45.167  -0.427  15.732  0.00  0.00    +0.000 A 
ATOM     30  C   UNL     1      45.913  -1.578  15.636  0.00  0.00    +0.000 A 
ATOM     31  C   UNL     1      45.480  -2.539  14.752  0.00  0.00    +0.000 A 
ATOM     32  C   UNL     1      44.318  -2.302  14.008  0.00  0.00    +0.000 A 
ATOM     33  O   UNL     1      46.367  -3.605  14.814  0.00  0.00    +0.000 OA
ATOM     34  C   UNL     1      47.496  -3.270  15.604  0.00  0.00    +0.000 C 
ATOM     35  O   UNL     1      47.062  -2.075  16.221  0.00  0.00    +0.000 OA
ENDBRANCH  26  27
ENDBRANCH  10  26
TORSDOF 8
ENDMDL
MODEL 3
REMARK VINA RESULT:      -8.0      2.788      8.639
REMARK  Name = 
REMARK  8 active torsions:
REMARK  status: ('A' for Active; 'I' for Inactive)
REMARK    1  A    between atoms: O_2  and  C_3
REMARK    2  A    between atoms: C_9  and  C_10
REMARK    3  A    between atoms: N_12  and  C_13
REMARK    4  A    between atoms: C_13  and  C_15
REMARK    5  A    between atoms: C_15  and  C_16
REMARK    6  A    between atoms: C_16  and  C_17
REMARK    7  A    between atoms: N_25  and  C_26
REMARK    8  A    between atoms: C_26  and  C_27
REMARK                            x       y       z     vdW  Elec       q    Type
REMARK                         _______ _______ _______ _____ _____    ______ ____
ROOT
ATOM      1  C   UNL     1      38.504  -2.397  16.676  0.00  0.00    +0.000 A 
ATOM      2  C   UNL     1      39.519  -3.208  16.212  0.00  0.00    +0.000 A 
ATOM      3  C   UNL     1      40.295  -2.732  15.179  0.00  0.00    +0.000 A 
ATOM      4  C   UNL     1      40.081  -1.473  14.603  0.00  0.00    +0.000 A 
ATOM      5  C   UNL     1      39.065  -0.685  15.082  0.00  0.00    +0.000 A 
ATOM      6  C   UNL     1      38.286  -1.157  16.114  0.00  0.00    +0.000 A 
ATOM      7  C   UNL     1      39.034   0.502  14.381  0.00  0.00    +0.000 A 
ATOM      8  C   UNL     1      40.055   0.393  13.479  0.00  0.00    +0.000 A 
ATOM      9  C   UNL     1      40.369   1.501  12.504  0.00  0.00    +0.000 C 
ATOM     10  N   UNL     1      40.672  -0.783  13.614  0.00  0.00    +0.000 N 
ENDROOT
BRANCH   7  11
ATOM     11  C   UNL     1      38.085   1.615  14.594  0.00  0.00    +0.000 C 
ATOM     12  O   UNL     1      37.107   1.728  13.832  0.00  0.00    +0.000 OA
ATOM     13  N   UNL     1      38.279   2.520  15.626  0.00  0.00    +0.000 NA
BRANCH  13  14
ATOM     14  C   UNL     1      37.325   3.703  15.897  0.00  0.00    +0.000 C 
ATOM     15  C   UNL     1      36.365   2.814  16.932  0.00  0.00    +0.000 C 
BRANCH  14  16
ATOM     16  C   UNL     1      38.223   4.396  17.060  0.00  0.00    +0.000 C 
BRANCH  16  17
ATOM     17  C   UNL     1      39.310   5.193  16.503  0.00  0.00    +0.000 C 
BRANCH  17  18
ATOM     18  C   UNL     1      40.092   5.768  17.622  0.00  0.00    +0.000 A 
ATOM     19  C   UNL     1      39.582   5.826  18.896  0.00  0.00    +0.000 A 
ATOM     20  C   UNL     1      40.303   6.362  19.935  0.00  0.00    +0.000 A 
ATOM     21  C   UNL     1      41.554   6.864  19.768  0.00  0.00    +0.000 A 
ATOM     22  C   UNL     1      42.074   6.811  18.494  0.00  0.00    +0.000 A 
ATOM     23  C   UNL     1      41.362   6.272  17.424  0.00  0.00    +0.000 A 
ENDBRANCH  17  18
ENDBRANCH  16  17
ENDBRANCH  14  16
ENDBRANCH  13  14
ENDBRANCH   7  11
BRANCH   1  25
ATOM     24  C   UNL     1      37.879  -2.311  19.014  0.00  0.00    +0.000 C 
ATOM     25  O   UNL     1      37.692  -2.825  17.714  0.00  0.00    +0.000 OA
ENDBRANCH   1  25
BRANCH  10  26
ATOM     26  C   UNL     1      41.757  -1.245  12.843  0.00  0.00    +0.000 C 
BRANCH  26  27
ATOM     27  C   UNL     1      41.506  -2.113  11.707  0.00  0.00    +0.000 A 
ATOM     28  C   UNL     1      40.541  -1.900  10.731  0.00  0.00    +0.000 A 
ATOM     29  C   UNL     1      40.443  -2.778   9.674  0.00  0.00    +0.000 A 
ATOM     30  C   UNL     1      41.254  -3.877   9.513  0.00  0.00    +0.000 A 
ATOM     31  C   UNL     1      42.214  -4.101  10.472  0.00  0.00    +0.000 A 
ATOM     32  C   UNL     1      42.317  -3.211  11.548  0.00  0.00    +0.000 A 
ATOM     33  O   UNL     1      42.911  -5.247  10.118  0.00  0.00    +0.000 OA
ATOM     34  C   UNL     1      42.289  -5.890   9.018  0.00  0.00    +0.000 C 
ATOM     35  O   UNL     1      41.382  -4.895   8.588  0.00  0.00    +0.000 OA
ENDBRANCH  26  27
ENDBRANCH  10  26
TORSDOF 8
ENDMDL
MODEL 4
REMARK VINA RESULT:      -7.9      2.598      8.793
REMARK  Name = 
REMARK  8 active torsions:
REMARK  status: ('A' for Active; 'I' for Inactive)
REMARK    1  A    between atoms: O_2  and  C_3
REMARK    2  A    between atoms: C_9  and  C_10
REMARK    3  A    between atoms: N_12  and  C_13
REMARK    4  A    between atoms: C_13  and  C_15
REMARK    5  A    between atoms: C_15  and  C_16
REMARK    6  A    between atoms: C_16  and  C_17
REMARK    7  A    between atoms: N_25  and  C_26
REMARK    8  A    between atoms: C_26  and  C_27
REMARK                            x       y       z     vdW  Elec       q    Type
REMARK                         _______ _______ _______ _____ _____    ______ ____
ROOT
ATOM      1  C   UNL     1      41.096  -0.963  13.943  0.00  0.00    +0.000 A 
ATOM      2  C   UNL     1      40.836  -2.079  14.711  0.00  0.00    +0.000 A 
ATOM      3  C   UNL     1      39.673  -2.091  15.448  0.00  0.00    +0.000 A 
ATOM      4  C   UNL     1      38.769  -1.021  15.435  0.00  0.00    +0.000 A 
ATOM      5  C   UNL     1      39.050   0.078  14.663  0.00  0.00    +0.000 A 
ATOM      6  C   UNL     1      40.212   0.096  13.926  0.00  0.00    +0.000 A 
ATOM      7  C   UNL     1      38.035   1.003  14.795  0.00  0.00    +0.000 A 
ATOM      8  C   UNL     1      37.153   0.422  15.662  0.00  0.00    +0.000 A 
ATOM      9  C   UNL     1      35.879   1.117  16.076  0.00  0.00    +0.000 C 
ATOM     10  N   UNL     1      37.595  -0.780  16.040  0.00  0.00    +0.000 N 
ENDROOT
BRANCH   7  11
ATOM     11  C   UNL     1      37.965   2.320  14.126  0.00  0.00    +0.000 C 
ATOM     12  O   UNL     1      37.616   2.373  12.932  0.00  0.00    +0.000 OA
ATOM     13  N   UNL     1      38.282   3.479  14.817  0.00  0.00    +0.000 NA
BRANCH  13  14
ATOM     14  C   UNL     1      38.230   4.881  14.172  0.00  0.00    +0.000 C 
ATOM     15  C   UNL     1      36.689   5.185  14.733  0.00  0.00    +0.000 C 
BRANCH  14  16
ATOM     16  C   UNL     1      38.998   5.660  15.375  0.00  0.00    +0.000 C 
BRANCH  16  17
ATOM     17  C   UNL     1      38.908   4.932  16.636  0.00  0.00    +0.000 C 
BRANCH  17  18
ATOM     18  C   UNL     1      39.774   5.608  17.630  0.00  0.00    +0.000 A 
ATOM     19  C   UNL     1      41.008   6.100  17.286  0.00  0.00    +0.000 A 
ATOM     20  C   UNL     1      41.816   6.723  18.207  0.00  0.00    +0.000 A 
ATOM     21  C   UNL     1      41.447   6.887  19.503  0.00  0.00    +0.000 A 
ATOM     22  C   UNL     1      40.210   6.396  19.858  0.00  0.00    +0.000 A 
ATOM     23  C   UNL     1      39.373   5.761  18.942  0.00  0.00    +0.000 A 
ENDBRANCH  17  18
ENDBRANCH  16  17
ENDBRANCH  14  16
ENDBRANCH  13  14
ENDBRANCH   7  11
BRANCH   1  25
ATOM     24  C   UNL     1      43.153  -1.980  13.170  0.00  0.00    +0.000 C 
ATOM     25  O   UNL     1      42.251  -0.896  13.181  0.00  0.00    +0.000 OA
ENDBRANCH   1  25
BRANCH  10  26
ATOM     26  C   UNL     1      36.954  -1.655  16.938  0.00  0.00    +0.000 C 
BRANCH  26  27
ATOM     27  C   UNL     1      36.466  -2.936  16.462  0.00  0.00    +0.000 A 
ATOM     28  C   UNL     1      37.014  -4.172  16.778  0.00  0.00    +0.000 A 
ATOM     29  C   UNL     1      36.419  -5.318  16.296  0.00  0.00    +0.000 A 
ATOM     30  C   UNL     1      35.292  -5.324  15.508  0.00  0.00    +0.000 A 
ATOM     31  C   UNL     1      34.739  -4.106  15.187  0.00  0.00    +0.000 A 
ATOM     32  C   UNL     1      35.340  -2.939  15.673  0.00  0.00    +0.000 A 
ATOM     33  O   UNL     1      33.624  -4.341  14.394  0.00  0.00    +0.000 OA
ATOM     34  C   UNL     1      33.546  -5.710  14.035  0.00  0.00    +0.000 C 
ATOM     35  O   UNL     1      34.504  -6.283  14.902  0.00  0.00    +0.000 OA
ENDBRANCH  26  27
ENDBRANCH  10  26
TORSDOF 8
ENDMDL
MODEL 5
REMARK VINA RESULT:      -7.5      2.544      8.164
REMARK  Name = 
REMARK  8 active torsions:
REMARK  status: ('A' for Active; 'I' for Inactive)
REMARK    1  A    between atoms: O_2  and  C_3
REMARK    2  A    between atoms: C_9  and  C_10
REMARK    3  A    between atoms: N_12  and  C_13
REMARK    4  A    between atoms: C_13  and  C_15
REMARK    5  A    between atoms: C_15  and  C_16
REMARK    6  A    between atoms: C_16  and  C_17
REMARK    7  A    between atoms: N_25  and  C_26
REMARK    8  A    between atoms: C_26  and  C_27
REMARK                            x       y       z     vdW  Elec       q    Type
REMARK                         _______ _______ _______ _____ _____    ______ ____
ROOT
ATOM      1  C   UNL     1      42.045   0.112  13.534  0.00  0.00    +0.000 A 
ATOM      2  C   UNL     1      41.813  -1.180  13.958  0.00  0.00    +0.000 A 
ATOM      3  C   UNL     1      40.549  -1.486  14.413  0.00  0.00    +0.000 A 
ATOM      4  C   UNL     1      39.520  -0.537  14.453  0.00  0.00    +0.000 A 
ATOM      5  C   UNL     1      39.776   0.742  14.025  0.00  0.00    +0.000 A 
ATOM      6  C   UNL     1      41.038   1.053  13.571  0.00  0.00    +0.000 A 
ATOM      7  C   UNL     1      38.633   1.505  14.147  0.00  0.00    +0.000 A 
ATOM      8  C   UNL     1      37.701   0.645  14.656  0.00  0.00    +0.000 A 
ATOM      9  C   UNL     1      36.288   1.091  14.940  0.00  0.00    +0.000 C 
ATOM     10  N   UNL     1      38.234  -0.566  14.837  0.00  0.00    +0.000 N 
ENDROOT
BRANCH   7  11
ATOM     11  C   UNL     1      38.499   2.934  13.793  0.00  0.00    +0.000 C 
ATOM     12  O   UNL     1      38.741   3.292  12.626  0.00  0.00    +0.000 OA
ATOM     13  N   UNL     1      38.109   3.862  14.745  0.00  0.00    +0.000 NA
BRANCH  13  14
ATOM     14  C   UNL     1      37.954   5.367  14.437  0.00  0.00    +0.000 C 
ATOM     15  C   UNL     1      36.303   5.251  14.232  0.00  0.00    +0.000 C 
BRANCH  14  16
ATOM     16  C   UNL     1      37.892   5.862  15.984  0.00  0.00    +0.000 C 
BRANCH  16  17
ATOM     17  C   UNL     1      38.991   5.314  16.772  0.00  0.00    +0.000 C 
BRANCH  17  18
ATOM     18  C   UNL     1      39.121   6.113  18.014  0.00  0.00    +0.000 A 
ATOM     19  C   UNL     1      40.114   5.858  18.927  0.00  0.00    +0.000 A 
ATOM     20  C   UNL     1      40.233   6.593  20.082  0.00  0.00    +0.000 A 
ATOM     21  C   UNL     1      39.384   7.608  20.388  0.00  0.00    +0.000 A 
ATOM     22  C   UNL     1      38.384   7.870  19.478  0.00  0.00    +0.000 A 
ATOM     23  C   UNL     1      38.242   7.139  18.300  0.00  0.00    +0.000 A 
ENDBRANCH  17  18
ENDBRANCH  16  17
ENDBRANCH  14  16
ENDBRANCH  13  14
ENDBRANCH   7  11
BRANCH   1  25
ATOM     24  C   UNL     1      43.707   0.091  11.773  0.00  0.00    +0.000 C 
ATOM     25  O   UNL     1      43.298   0.475  13.066  0.00  0.00    +0.000 OA
ENDBRANCH   1  25
BRANCH  10  26
ATOM     26  C   UNL     1      37.572  -1.694  15.360  0.00  0.00    +0.000 C 
BRANCH  26  27
ATOM     27  C   UNL     1      37.842  -2.112  16.723  0.00  0.00    +0.000 A 
ATOM     28  C   UNL     1      37.662  -1.326  17.854  0.00  0.00    +0.000 A 
ATOM     29  C   UNL     1      37.909  -1.866  19.098  0.00  0.00    +0.000 A 
ATOM     30  C   UNL     1      38.329  -3.158  19.304  0.00  0.00    +0.000 A 
ATOM     31  C   UNL     1      38.512  -3.948  18.192  0.00  0.00    +0.000 A 
ATOM     32  C   UNL     1      38.263  -3.404  16.926  0.00  0.00    +0.000 A 
ATOM     33  O   UNL     1      38.933  -5.198  18.622  0.00  0.00    +0.000 OA
ATOM     34  C   UNL     1      39.208  -5.181  20.013  0.00  0.00    +0.000 C 
ATOM     35  O   UNL     1      38.644  -3.943  20.396  0.00  0.00    +0.000 OA
ENDBRANCH  26  27
ENDBRANCH  10  26
TORSDOF 8
ENDMDL
MODEL 6
REMARK VINA RESULT:      -7.5     24.364     27.988
REMARK  Name = 
REMARK  8 active torsions:
REMARK  status: ('A' for Active; 'I' for Inactive)
REMARK    1  A    between atoms: O_2  and  C_3
REMARK    2  A    between atoms: C_9  and  C_10
REMARK    3  A    between atoms: N_12  and  C_13
REMARK    4  A    between atoms: C_13  and  C_15
REMARK    5  A    between atoms: C_15  and  C_16
REMARK    6  A    between atoms: C_16  and  C_17
REMARK    7  A    between atoms: N_25  and  C_26
REMARK    8  A    between atoms: C_26  and  C_27
REMARK                            x       y       z     vdW  Elec       q    Type
REMARK                         _______ _______ _______ _____ _____    ______ ____
ROOT
ATOM      1  C   UNL     1      27.258  10.031  40.988  0.00  0.00    +0.000 A 
ATOM      2  C   UNL     1      28.566   9.594  41.009  0.00  0.00    +0.000 A 
ATOM      3  C   UNL     1      29.557  10.536  40.847  0.00  0.00    +0.000 A 
ATOM      4  C   UNL     1      29.274  11.896  40.667  0.00  0.00    +0.000 A 
ATOM      5  C   UNL     1      27.964  12.306  40.650  0.00  0.00    +0.000 A 
ATOM      6  C   UNL     1      26.969  11.368  40.810  0.00  0.00    +0.000 A 
ATOM      7  C   UNL     1      27.913  13.672  40.464  0.00  0.00    +0.000 A 
ATOM      8  C   UNL     1      29.222  14.053  40.372  0.00  0.00    +0.000 A 
ATOM      9  C   UNL     1      29.610  15.497  40.166  0.00  0.00    +0.000 C 
ATOM     10  N   UNL     1      30.025  12.994  40.491  0.00  0.00    +0.000 N 
ENDROOT
BRANCH   7  11
ATOM     11  C   UNL     1      26.687  14.494  40.387  0.00  0.00    +0.000 C 
ATOM     12  O   UNL     1      26.064  14.748  41.434  0.00  0.00    +0.000 OA
ATOM     13  N   UNL     1      26.238  14.978  39.168  0.00  0.00    +0.000 NA
BRANCH  13  14
ATOM     14  C   UNL     1      24.965  15.839  39.024  0.00  0.00    +0.000 C 
ATOM     15  C   UNL     1      25.829  17.257  38.871  0.00  0.00    +0.000 C 
BRANCH  14  16
ATOM     16  C   UNL     1      24.764  15.597  37.429  0.00  0.00    +0.000 C 
BRANCH  16  17
ATOM     17  C   UNL     1      25.952  15.974  36.670  0.00  0.00    +0.000 C 
BRANCH  17  18
ATOM     18  C   UNL     1      25.652  15.831  35.227  0.00  0.00    +0.000 A 
ATOM     19  C   UNL     1      25.875  14.650  34.564  0.00  0.00    +0.000 A 
ATOM     20  C   UNL     1      25.602  14.515  33.223  0.00  0.00    +0.000 A 
ATOM     21  C   UNL     1      25.099  15.533  32.479  0.00  0.00    +0.000 A 
ATOM     22  C   UNL     1      24.872  16.722  33.136  0.00  0.00    +0.000 A 
ATOM     23  C   UNL     1      25.140  16.883  34.494  0.00  0.00    +0.000 A 
ENDBRANCH  17  18
ENDBRANCH  16  17
ENDBRANCH  14  16
ENDBRANCH  13  14
ENDBRANCH   7  11
BRANCH   1  25
ATOM     24  C   UNL     1      26.444   7.905  41.814  0.00  0.00    +0.000 C 
ATOM     25  O   UNL     1      26.220   9.127  41.147  0.00  0.00    +0.000 OA
ENDBRANCH   1  25
BRANCH  10  26
ATOM     26  C   UNL     1      31.433  13.008  40.429  0.00  0.00    +0.000 C 
BRANCH  26  27
ATOM     27  C   UNL     1      32.091  12.962  39.137  0.00  0.00    +0.000 A 
ATOM     28  C   UNL     1      32.069  11.883  38.262  0.00  0.00    +0.000 A 
ATOM     29  C   UNL     1      32.696  11.992  37.040  0.00  0.00    +0.000 A 
ATOM     30  C   UNL     1      33.355  13.120  36.613  0.00  0.00    +0.000 A 
ATOM     31  C   UNL     1      33.384  14.197  37.469  0.00  0.00    +0.000 A 
ATOM     32  C   UNL     1      32.750  14.092  38.713  0.00  0.00    +0.000 A 
ATOM     33  O   UNL     1      34.092  15.216  36.847  0.00  0.00    +0.000 OA
ATOM     34  C   UNL     1      34.692  14.749  35.651  0.00  0.00    +0.000 C 
ATOM     35  O   UNL     1      34.048  13.503  35.481  0.00  0.00    +0.000 OA
ENDBRANCH  26  27
ENDBRANCH  10  26
TORSDOF 8
ENDMDL
MODEL 7
REMARK VINA RESULT:      -7.4      2.067      4.363
REMARK  Name = 
REMARK  8 active torsions:
REMARK  status: ('A' for Active; 'I' for Inactive)
REMARK    1  A    between atoms: O_2  and  C_3
REMARK    2  A    between atoms: C_9  and  C_10
REMARK    3  A    between atoms: N_12  and  C_13
REMARK    4  A    between atoms: C_13  and  C_15
REMARK    5  A    between atoms: C_15  and  C_16
REMARK    6  A    between atoms: C_16  and  C_17
REMARK    7  A    between atoms: N_25  and  C_26
REMARK    8  A    between atoms: C_26  and  C_27
REMARK                            x       y       z     vdW  Elec       q    Type
REMARK                         _______ _______ _______ _____ _____    ______ ____
ROOT
ATOM      1  C   UNL     1      41.763   3.787  12.824  0.00  0.00    +0.000 A 
ATOM      2  C   UNL     1      41.565   5.088  13.238  0.00  0.00    +0.000 A 
ATOM      3  C   UNL     1      40.469   5.347  14.030  0.00  0.00    +0.000 A 
ATOM      4  C   UNL     1      39.573   4.342  14.417  0.00  0.00    +0.000 A 
ATOM      5  C   UNL     1      39.792   3.055  13.993  0.00  0.00    +0.000 A 
ATOM      6  C   UNL     1      40.886   2.792  13.199  0.00  0.00    +0.000 A 
ATOM      7  C   UNL     1      38.801   2.233  14.487  0.00  0.00    +0.000 A 
ATOM      8  C   UNL     1      37.994   3.067  15.210  0.00  0.00    +0.000 A 
ATOM      9  C   UNL     1      36.772   2.554  15.931  0.00  0.00    +0.000 C 
ATOM     10  N   UNL     1      38.458   4.319  15.163  0.00  0.00    +0.000 N 
ENDROOT
BRANCH   7  11
ATOM     11  C   UNL     1      38.679   0.779  14.255  0.00  0.00    +0.000 C 
ATOM     12  O   UNL     1      37.826   0.365  13.448  0.00  0.00    +0.000 OA
ATOM     13  N   UNL     1      39.502  -0.113  14.925  0.00  0.00    +0.000 NA
BRANCH  13  14
ATOM     14  C   UNL     1      39.420  -1.642  14.726  0.00  0.00    +0.000 C 
ATOM     15  C   UNL     1      41.077  -1.830  14.762  0.00  0.00    +0.000 C 
BRANCH  14  16
ATOM     16  C   UNL     1      39.180  -2.014  16.290  0.00  0.00    +0.000 C 
BRANCH  16  17
ATOM     17  C   UNL     1      37.903  -2.689  16.496  0.00  0.00    +0.000 C 
BRANCH  17  18
ATOM     18  C   UNL     1      36.963  -1.733  17.127  0.00  0.00    +0.000 A 
ATOM     19  C   UNL     1      37.157  -1.277  18.407  0.00  0.00    +0.000 A 
ATOM     20  C   UNL     1      36.284  -0.395  18.996  0.00  0.00    +0.000 A 
ATOM     21  C   UNL     1      35.185   0.077  18.354  0.00  0.00    +0.000 A 
ATOM     22  C   UNL     1      34.981  -0.375  17.068  0.00  0.00    +0.000 A 
ATOM     23  C   UNL     1      35.852  -1.270  16.450  0.00  0.00    +0.000 A 
ENDBRANCH  17  18
ENDBRANCH  16  17
ENDBRANCH  14  16
ENDBRANCH  13  14
ENDBRANCH   7  11
BRANCH   1  25
ATOM     24  C   UNL     1      43.104   4.208  10.852  0.00  0.00    +0.000 C 
ATOM     25  O   UNL     1      42.850   3.469  12.026  0.00  0.00    +0.000 OA
ENDBRANCH   1  25
BRANCH  10  26
ATOM     26  C   UNL     1      37.873   5.444  15.778  0.00  0.00    +0.000 C 
BRANCH  26  27
ATOM     27  C   UNL     1      38.337   5.864  17.086  0.00  0.00    +0.000 A 
ATOM     28  C   UNL     1      39.158   5.120  17.924  0.00  0.00    +0.000 A 
ATOM     29  C   UNL     1      39.568   5.662  19.123  0.00  0.00    +0.000 A 
ATOM     30  C   UNL     1      39.213   6.917  19.560  0.00  0.00    +0.000 A 
ATOM     31  C   UNL     1      38.400   7.664  18.740  0.00  0.00    +0.000 A 
ATOM     32  C   UNL     1      37.981   7.119  17.520  0.00  0.00    +0.000 A 
ATOM     33  O   UNL     1      38.169   8.881  19.365  0.00  0.00    +0.000 OA
ATOM     34  C   UNL     1      38.680   8.869  20.687  0.00  0.00    +0.000 C 
ATOM     35  O   UNL     1      39.464   7.693  20.674  0.00  0.00    +0.000 OA
ENDBRANCH  26  27
ENDBRANCH  10  26
TORSDOF 8
ENDMDL
MODEL 8
REMARK VINA RESULT:      -7.1     26.770     30.641
REMARK  Name = 
REMARK  8 active torsions:
REMARK  status: ('A' for Active; 'I' for Inactive)
REMARK    1  A    between atoms: O_2  and  C_3
REMARK    2  A    between atoms: C_9  and  C_10
REMARK    3  A    between atoms: N_12  and  C_13
REMARK    4  A    between atoms: C_13  and  C_15
REMARK    5  A    between atoms: C_15  and  C_16
REMARK    6  A    between atoms: C_16  and  C_17
REMARK    7  A    between atoms: N_25  and  C_26
REMARK    8  A    between atoms: C_26  and  C_27
REMARK                            x       y       z     vdW  Elec       q    Type
REMARK                         _______ _______ _______ _____ _____    ______ ____
ROOT
ATOM      1  C   UNL     1       7.987   2.116  11.885  0.00  0.00    +0.000 A 
ATOM      2  C   UNL     1       7.868   0.742  11.939  0.00  0.00    +0.000 A 
ATOM      3  C   UNL     1       8.603   0.002  11.040  0.00  0.00    +0.000 A 
ATOM      4  C   UNL     1       9.451   0.597  10.098  0.00  0.00    +0.000 A 
ATOM      5  C   UNL     1       9.553   1.965  10.065  0.00  0.00    +0.000 A 
ATOM      6  C   UNL     1       8.818   2.711  10.959  0.00  0.00    +0.000 A 
ATOM      7  C   UNL     1      10.435   2.337   9.072  0.00  0.00    +0.000 A 
ATOM      8  C   UNL     1      10.848   1.155   8.522  0.00  0.00    +0.000 A 
ATOM      9  C   UNL     1      11.838   1.118   7.384  0.00  0.00    +0.000 C 
ATOM     10  N   UNL     1      10.258   0.126   9.135  0.00  0.00    +0.000 N 
ENDROOT
BRANCH   7  11
ATOM     11  C   UNL     1      10.815   3.720   8.717  0.00  0.00    +0.000 C 
ATOM     12  O   UNL     1      11.705   4.290   9.377  0.00  0.00    +0.000 OA
ATOM     13  N   UNL     1      10.193   4.376   7.667  0.00  0.00    +0.000 NA
BRANCH  13  14
ATOM     14  C   UNL     1      10.544   5.821   7.252  0.00  0.00    +0.000 C 
ATOM     15  C   UNL     1      10.262   5.524   5.635  0.00  0.00    +0.000 C 
BRANCH  14  16
ATOM     16  C   UNL     1       9.081   6.457   7.559  0.00  0.00    +0.000 C 
BRANCH  16  17
ATOM     17  C   UNL     1       9.024   7.071   8.882  0.00  0.00    +0.000 C 
BRANCH  17  18
ATOM     18  C   UNL     1       7.742   6.689   9.521  0.00  0.00    +0.000 A 
ATOM     19  C   UNL     1       6.554   6.757   8.837  0.00  0.00    +0.000 A 
ATOM     20  C   UNL     1       5.364   6.409   9.428  0.00  0.00    +0.000 A 
ATOM     21  C   UNL     1       5.290   5.981  10.715  0.00  0.00    +0.000 A 
ATOM     22  C   UNL     1       6.477   5.910  11.409  0.00  0.00    +0.000 A 
ATOM     23  C   UNL     1       7.697   6.257  10.831  0.00  0.00    +0.000 A 
ENDBRANCH  17  18
ENDBRANCH  16  17
ENDBRANCH  14  16
ENDBRANCH  13  14
ENDBRANCH   7  11
BRANCH   1  25
ATOM     24  C   UNL     1       7.091   2.499  14.102  0.00  0.00    +0.000 C 
ATOM     25  O   UNL     1       7.270   2.910  12.765  0.00  0.00    +0.000 OA
ENDBRANCH   1  25
BRANCH  10  26
ATOM     26  C   UNL     1      10.433  -1.237   8.822  0.00  0.00    +0.000 C 
BRANCH  26  27
ATOM     27  C   UNL     1      11.417  -2.016   9.549  0.00  0.00    +0.000 A 
ATOM     28  C   UNL     1      12.794  -1.898   9.413  0.00  0.00    +0.000 A 
ATOM     29  C   UNL     1      13.619  -2.667  10.206  0.00  0.00    +0.000 A 
ATOM     30  C   UNL     1      13.165  -3.562  11.145  0.00  0.00    +0.000 A 
ATOM     31  C   UNL     1      11.803  -3.689  11.290  0.00  0.00    +0.000 A 
ATOM     32  C   UNL     1      10.960  -2.910  10.487  0.00  0.00    +0.000 A 
ATOM     33  O   UNL     1      11.566  -4.633  12.279  0.00  0.00    +0.000 OA
ATOM     34  C   UNL     1      12.774  -5.270  12.661  0.00  0.00    +0.000 C 
ATOM     35  O   UNL     1      13.737  -4.435  12.050  0.00  0.00    +0.000 OA
ENDBRANCH  26  27
ENDBRANCH  10  26
TORSDOF 8
ENDMDL
MODEL 9
REMARK VINA RESULT:      -7.1      2.311      8.078
REMARK  Name = 
REMARK  8 active torsions:
REMARK  status: ('A' for Active; 'I' for Inactive)
REMARK    1  A    between atoms: O_2  and  C_3
REMARK    2  A    between atoms: C_9  and  C_10
REMARK    3  A    between atoms: N_12  and  C_13
REMARK    4  A    between atoms: C_13  and  C_15
REMARK    5  A    between atoms: C_15  and  C_16
REMARK    6  A    between atoms: C_16  and  C_17
REMARK    7  A    between atoms: N_25  and  C_26
REMARK    8  A    between atoms: C_26  and  C_27
REMARK                            x       y       z     vdW  Elec       q    Type
REMARK                         _______ _______ _______ _____ _____    ______ ____
ROOT
ATOM      1  C   UNL     1      40.525   1.429  12.698  0.00  0.00    +0.000 A 
ATOM      2  C   UNL     1      39.928   0.187  12.765  0.00  0.00    +0.000 A 
ATOM      3  C   UNL     1      38.860   0.037  13.621  0.00  0.00    +0.000 A 
ATOM      4  C   UNL     1      38.377   1.092  14.405  0.00  0.00    +0.000 A 
ATOM      5  C   UNL     1      38.987   2.318  14.321  0.00  0.00    +0.000 A 
ATOM      6  C   UNL     1      40.057   2.473  13.468  0.00  0.00    +0.000 A 
ATOM      7  C   UNL     1      38.356   3.205  15.168  0.00  0.00    +0.000 A 
ATOM      8  C   UNL     1      37.362   2.471  15.752  0.00  0.00    +0.000 A 
ATOM      9  C   UNL     1      36.420   3.081  16.761  0.00  0.00    +0.000 C 
ATOM     10  N   UNL     1      37.380   1.216  15.296  0.00  0.00    +0.000 N 
ENDROOT
BRANCH   7  11
ATOM     11  C   UNL     1      38.715   4.625  15.367  0.00  0.00    +0.000 C 
ATOM     12  O   UNL     1      38.438   5.448  14.475  0.00  0.00    +0.000 OA
ATOM     13  N   UNL     1      39.351   5.036  16.528  0.00  0.00    +0.000 NA
BRANCH  13  14
ATOM     14  C   UNL     1      39.753   6.503  16.791  0.00  0.00    +0.000 C 
ATOM     15  C   UNL     1      38.796   6.619  18.153  0.00  0.00    +0.000 C 
BRANCH  14  16
ATOM     16  C   UNL     1      41.131   6.171  17.588  0.00  0.00    +0.000 C 
BRANCH  16  17
ATOM     17  C   UNL     1      41.680   7.356  18.237  0.00  0.00    +0.000 C 
BRANCH  17  18
ATOM     18  C   UNL     1      42.661   6.920  19.258  0.00  0.00    +0.000 A 
ATOM     19  C   UNL     1      44.012   7.049  19.052  0.00  0.00    +0.000 A 
ATOM     20  C   UNL     1      44.925   6.640  19.994  0.00  0.00    +0.000 A 
ATOM     21  C   UNL     1      44.550   6.088  21.177  0.00  0.00    +0.000 A 
ATOM     22  C   UNL     1      43.197   5.954  21.392  0.00  0.00    +0.000 A 
ATOM     23  C   UNL     1      42.252   6.361  20.452  0.00  0.00    +0.000 A 
ENDBRANCH  17  18
ENDBRANCH  16  17
ENDBRANCH  14  16
ENDBRANCH  13  14
ENDBRANCH   7  11
BRANCH   1  25
ATOM     24  C   UNL     1      42.807   2.168  12.362  0.00  0.00    +0.000 C 
ATOM     25  O   UNL     1      41.603   1.638  11.854  0.00  0.00    +0.000 OA
ENDBRANCH   1  25
BRANCH  10  26
ATOM     26  C   UNL     1      36.513   0.178  15.689  0.00  0.00    +0.000 C 
BRANCH  26  27
ATOM     27  C   UNL     1      36.725  -0.487  16.960  0.00  0.00    +0.000 A 
ATOM     28  C   UNL     1      36.013  -0.237  18.126  0.00  0.00    +0.000 A 
ATOM     29  C   UNL     1      36.283  -0.979  19.255  0.00  0.00    +0.000 A 
ATOM     30  C   UNL     1      37.229  -1.975  19.311  0.00  0.00    +0.000 A 
ATOM     31  C   UNL     1      37.942  -2.234  18.163  0.00  0.00    +0.000 A 
ATOM     32  C   UNL     1      37.672  -1.483  17.013  0.00  0.00    +0.000 A 
ATOM     33  O   UNL     1      38.831  -3.263  18.438  0.00  0.00    +0.000 OA
ATOM     34  C   UNL     1      38.837  -3.562  19.824  0.00  0.00    +0.000 C 
ATOM     35  O   UNL     1      37.698  -2.853  20.269  0.00  0.00    +0.000 OA
ENDBRANCH  26  27
ENDBRANCH  10  26
TORSDOF 8
ENDMDL
MODEL 10
REMARK VINA RESULT:      -7.1      6.998     10.482
REMARK  Name = 
REMARK  8 active torsions:
REMARK  status: ('A' for Active; 'I' for Inactive)
REMARK    1  A    between atoms: O_2  and  C_3
REMARK    2  A    between atoms: C_9  and  C_10
REMARK    3  A    between atoms: N_12  and  C_13
REMARK    4  A    between atoms: C_13  and  C_15
REMARK    5  A    between atoms: C_15  and  C_16
REMARK    6  A    between atoms: C_16  and  C_17
REMARK    7  A    between atoms: N_25  and  C_26
REMARK    8  A    between atoms: C_26  and  C_27
REMARK                            x       y       z     vdW  Elec       q    Type
REMARK                         _______ _______ _______ _____ _____    ______ ____
ROOT
ATOM      1  C   UNL     1      37.218   3.653   9.038  0.00  0.00    +0.000 A 
ATOM      2  C   UNL     1      37.788   3.135  10.182  0.00  0.00    +0.000 A 
ATOM      3  C   UNL     1      37.513   3.766  11.375  0.00  0.00    +0.000 A 
ATOM      4  C   UNL     1      36.684   4.893  11.450  0.00  0.00    +0.000 A 
ATOM      5  C   UNL     1      36.128   5.388  10.297  0.00  0.00    +0.000 A 
ATOM      6  C   UNL     1      36.402   4.763   9.102  0.00  0.00    +0.000 A 
ATOM      7  C   UNL     1      35.353   6.489  10.598  0.00  0.00    +0.000 A 
ATOM      8  C   UNL     1      35.468   6.629  11.952  0.00  0.00    +0.000 A 
ATOM      9  C   UNL     1      34.756   7.733  12.695  0.00  0.00    +0.000 C 
ATOM     10  N   UNL     1      36.261   5.679  12.453  0.00  0.00    +0.000 N 
ENDROOT
BRANCH   7  11
ATOM     11  C   UNL     1      34.588   7.305   9.631  0.00  0.00    +0.000 C 
ATOM     12  O   UNL     1      33.360   7.129   9.531  0.00  0.00    +0.000 OA
ATOM     13  N   UNL     1      35.227   8.253   8.847  0.00  0.00    +0.000 NA
BRANCH  13  14
ATOM     14  C   UNL     1      34.483   9.132   7.819  0.00  0.00    +0.000 C 
ATOM     15  C   UNL     1      35.752  10.206   7.681  0.00  0.00    +0.000 C 
BRANCH  14  16
ATOM     16  C   UNL     1      34.873   8.249   6.512  0.00  0.00    +0.000 C 
BRANCH  16  17
ATOM     17  C   UNL     1      33.689   7.716   5.846  0.00  0.00    +0.000 C 
BRANCH  17  18
ATOM     18  C   UNL     1      34.020   6.378   5.303  0.00  0.00    +0.000 A 
ATOM     19  C   UNL     1      33.600   5.989   4.055  0.00  0.00    +0.000 A 
ATOM     20  C   UNL     1      33.900   4.746   3.551  0.00  0.00    +0.000 A 
ATOM     21  C   UNL     1      34.624   3.835   4.250  0.00  0.00    +0.000 A 
ATOM     22  C   UNL     1      35.050   4.216   5.503  0.00  0.00    +0.000 A 
ATOM     23  C   UNL     1      34.758   5.470   6.036  0.00  0.00    +0.000 A 
ENDBRANCH  17  18
ENDBRANCH  16  17
ENDBRANCH  14  16
ENDBRANCH  13  14
ENDBRANCH   7  11
BRANCH   1  25
ATOM     24  C   UNL     1      37.294   1.667   7.654  0.00  0.00    +0.000 C 
ATOM     25  O   UNL     1      37.460   3.058   7.810  0.00  0.00    +0.000 OA
ENDBRANCH   1  25
BRANCH  10  26
ATOM     26  C   UNL     1      36.618   5.524  13.807  0.00  0.00    +0.000 C 
BRANCH  26  27
ATOM     27  C   UNL     1      35.948   4.519  14.611  0.00  0.00    +0.000 A 
ATOM     28  C   UNL     1      34.576   4.307  14.652  0.00  0.00    +0.000 A 
ATOM     29  C   UNL     1      34.073   3.281  15.422  0.00  0.00    +0.000 A 
ATOM     30  C   UNL     1      34.853   2.431  16.171  0.00  0.00    +0.000 A 
ATOM     31  C   UNL     1      36.213   2.630  16.140  0.00  0.00    +0.000 A 
ATOM     32  C   UNL     1      36.729   3.671  15.359  0.00  0.00    +0.000 A 
ATOM     33  O   UNL     1      36.802   1.673  16.956  0.00  0.00    +0.000 OA
ATOM     34  C   UNL     1      35.814   0.955  17.675  0.00  0.00    +0.000 C 
ATOM     35  O   UNL     1      34.634   1.354  17.008  0.00  0.00    +0.000 OA
ENDBRANCH  26  27
ENDBRANCH  10  26
TORSDOF 8
ENDMDL
