MODEL 1
REMARK VINA RESULT:      -7.7      0.000      0.000
REMARK  Name = 
REMARK  1 active torsions:
REMARK  status: ('A' for Active; 'I' for Inactive)
REMARK    1  A    between atoms: C_5  and  C_6
REMARK                            x       y       z     vdW  Elec       q    Type
REMARK                         _______ _______ _______ _____ _____    ______ ____
ROOT
ATOM      1  O   UNL     1      16.669  10.448  32.396  0.00  0.00    +0.000 OA
ATOM      2  C   UNL     1      16.371  11.023  33.466  0.00  0.00    +0.000 A 
ATOM      3  C   UNL     1      16.929  10.709  34.685  0.00  0.00    +0.000 A 
ATOM      4  O   UNL     1      17.877   9.701  34.750  0.00  0.00    +0.000 OA
ATOM      5  C   UNL     1      16.567  11.370  35.833  0.00  0.00    +0.000 A 
ATOM      6  O   UNL     1      15.672  12.318  35.748  0.00  0.00    +0.000 OA
ATOM      7  C   UNL     1      15.101  12.662  34.592  0.00  0.00    +0.000 A 
ATOM      8  C   UNL     1      14.170  13.671  34.607  0.00  0.00    +0.000 A 
ATOM      9  C   UNL     1      13.556  14.059  33.446  0.00  0.00    +0.000 A 
ATOM     10  C   UNL     1      13.884  13.429  32.279  0.00  0.00    +0.000 A 
ATOM     11  O   UNL     1      13.280  13.798  31.078  0.00  0.00    +0.000 OA
ATOM     12  C   UNL     1      14.816  12.414  32.245  0.00  0.00    +0.000 A 
ATOM     13  C   UNL     1      15.429  12.033  33.436  0.00  0.00    +0.000 A 
ENDROOT
BRANCH   5  14
ATOM     14  C   UNL     1      17.204  10.978  37.082  0.00  0.00    +0.000 A 
ATOM     15  C   UNL     1      18.495  11.352  37.388  0.00  0.00    +0.000 A 
ATOM     16  C   UNL     1      19.114  10.989  38.567  0.00  0.00    +0.000 A 
ATOM     17  C   UNL     1      18.449  10.221  39.503  0.00  0.00    +0.000 A 
ATOM     18  O   UNL     1      19.063   9.851  40.695  0.00  0.00    +0.000 OA
ATOM     19  C   UNL     1      17.157   9.848  39.196  0.00  0.00    +0.000 A 
ATOM     20  C   UNL     1      16.538  10.211  38.016  0.00  0.00    +0.000 A 
ENDBRANCH   5  14
TORSDOF 1
ENDMDL
MODEL 2
REMARK VINA RESULT:      -7.5      1.267      2.704
REMARK  Name = 
REMARK  1 active torsions:
REMARK  status: ('A' for Active; 'I' for Inactive)
REMARK    1  A    between atoms: C_5  and  C_6
REMARK                            x       y       z     vdW  Elec       q    Type
REMARK                         _______ _______ _______ _____ _____    ______ ____
ROOT
ATOM      1  O   UNL     1      14.130  13.255  34.967  0.00  0.00    +0.000 OA
ATOM      2  C   UNL     1      15.089  12.452  34.957  0.00  0.00    +0.000 A 
ATOM      3  C   UNL     1      15.834  12.135  36.069  0.00  0.00    +0.000 A 
ATOM      4  O   UNL     1      15.519  12.729  37.281  0.00  0.00    +0.000 OA
ATOM      5  C   UNL     1      16.879  11.245  36.006  0.00  0.00    +0.000 A 
ATOM      6  O   UNL     1      17.158  10.696  34.854  0.00  0.00    +0.000 OA
ATOM      7  C   UNL     1      16.468  10.968  33.745  0.00  0.00    +0.000 A 
ATOM      8  C   UNL     1      16.839  10.339  32.582  0.00  0.00    +0.000 A 
ATOM      9  C   UNL     1      16.161  10.587  31.418  0.00  0.00    +0.000 A 
ATOM     10  C   UNL     1      15.114  11.464  31.434  0.00  0.00    +0.000 A 
ATOM     11  O   UNL     1      14.401  11.740  30.268  0.00  0.00    +0.000 OA
ATOM     12  C   UNL     1      14.727  12.105  32.591  0.00  0.00    +0.000 A 
ATOM     13  C   UNL     1      15.430  11.841  33.765  0.00  0.00    +0.000 A 
ENDROOT
BRANCH   5  14
ATOM     14  C   UNL     1      17.618  10.964  37.229  0.00  0.00    +0.000 A 
ATOM     15  C   UNL     1      17.202  10.000  38.123  0.00  0.00    +0.000 A 
ATOM     16  C   UNL     1      17.890   9.721  39.287  0.00  0.00    +0.000 A 
ATOM     17  C   UNL     1      19.044  10.411  39.604  0.00  0.00    +0.000 A 
ATOM     18  O   UNL     1      19.745  10.137  40.774  0.00  0.00    +0.000 OA
ATOM     19  C   UNL     1      19.458  11.375  38.709  0.00  0.00    +0.000 A 
ATOM     20  C   UNL     1      18.770  11.654  37.545  0.00  0.00    +0.000 A 
ENDBRANCH   5  14
TORSDOF 1
ENDMDL
MODEL 3
REMARK VINA RESULT:      -6.9     18.770     20.508
REMARK  Name = 
REMARK  1 active torsions:
REMARK  status: ('A' for Active; 'I' for Inactive)
REMARK    1  A    between atoms: C_5  and  C_6
REMARK                            x       y       z     vdW  Elec       q    Type
REMARK                         _______ _______ _______ _____ _____    ______ ____
ROOT
ATOM      1  O   UNL     1      24.665  25.118  26.948  0.00  0.00    +0.000 OA
ATOM      2  C   UNL     1      25.769  24.628  26.624  0.00  0.00    +0.000 A 
ATOM      3  C   UNL     1      26.370  24.837  25.403  0.00  0.00    +0.000 A 
ATOM      4  O   UNL     1      25.730  25.633  24.467  0.00  0.00    +0.000 OA
ATOM      5  C   UNL     1      27.585  24.275  25.094  0.00  0.00    +0.000 A 
ATOM      6  O   UNL     1      28.170  23.528  25.992  0.00  0.00    +0.000 OA
ATOM      7  C   UNL     1      27.632  23.294  27.189  0.00  0.00    +0.000 A 
ATOM      8  C   UNL     1      28.325  22.494  28.064  0.00  0.00    +0.000 A 
ATOM      9  C   UNL     1      27.813  22.224  29.305  0.00  0.00    +0.000 A 
ATOM     10  C   UNL     1      26.607  22.761  29.657  0.00  0.00    +0.000 A 
ATOM     11  O   UNL     1      26.055  22.508  30.912  0.00  0.00    +0.000 OA
ATOM     12  C   UNL     1      25.896  23.566  28.792  0.00  0.00    +0.000 A 
ATOM     13  C   UNL     1      26.434  23.828  27.534  0.00  0.00    +0.000 A 
ENDROOT
BRANCH   5  14
ATOM     14  C   UNL     1      28.153  24.545  23.780  0.00  0.00    +0.000 A 
ATOM     15  C   UNL     1      28.886  25.685  23.527  0.00  0.00    +0.000 A 
ATOM     16  C   UNL     1      29.431  25.956  22.288  0.00  0.00    +0.000 A 
ATOM     17  C   UNL     1      29.259  25.079  21.236  0.00  0.00    +0.000 A 
ATOM     18  O   UNL     1      29.805  25.343  19.985  0.00  0.00    +0.000 OA
ATOM     19  C   UNL     1      28.526  23.939  21.491  0.00  0.00    +0.000 A 
ATOM     20  C   UNL     1      27.980  23.667  22.730  0.00  0.00    +0.000 A 
ENDBRANCH   5  14
TORSDOF 1
ENDMDL
MODEL 4
REMARK VINA RESULT:      -6.8     28.607     30.583
REMARK  Name = 
REMARK  1 active torsions:
REMARK  status: ('A' for Active; 'I' for Inactive)
REMARK    1  A    between atoms: C_5  and  C_6
REMARK                            x       y       z     vdW  Elec       q    Type
REMARK                         _______ _______ _______ _____ _____    ______ ____
ROOT
ATOM      1  O   UNL     1      29.823  20.447   9.181  0.00  0.00    +0.000 OA
ATOM      2  C   UNL     1      30.467  20.949  10.128  0.00  0.00    +0.000 A 
ATOM      3  C   UNL     1      31.825  20.799  10.295  0.00  0.00    +0.000 A 
ATOM      4  O   UNL     1      32.537  20.051   9.371  0.00  0.00    +0.000 OA
ATOM      5  C   UNL     1      32.487  21.372  11.353  0.00  0.00    +0.000 A 
ATOM      6  O   UNL     1      31.796  22.074  12.212  0.00  0.00    +0.000 OA
ATOM      7  C   UNL     1      30.479  22.251  12.096  0.00  0.00    +0.000 A 
ATOM      8  C   UNL     1      29.843  23.006  13.051  0.00  0.00    +0.000 A 
ATOM      9  C   UNL     1      28.491  23.215  12.975  0.00  0.00    +0.000 A 
ATOM     10  C   UNL     1      27.791  22.664  11.940  0.00  0.00    +0.000 A 
ATOM     11  O   UNL     1      26.415  22.857  11.831  0.00  0.00    +0.000 OA
ATOM     12  C   UNL     1      28.413  21.904  10.973  0.00  0.00    +0.000 A 
ATOM     13  C   UNL     1      29.788  21.702  11.067  0.00  0.00    +0.000 A 
ENDROOT
BRANCH   5  14
ATOM     14  C   UNL     1      33.925  21.165  11.458  0.00  0.00    +0.000 A 
ATOM     15  C   UNL     1      34.457  20.144  12.215  0.00  0.00    +0.000 A 
ATOM     16  C   UNL     1      35.818  19.933  12.325  0.00  0.00    +0.000 A 
ATOM     17  C   UNL     1      36.712  20.755  11.668  0.00  0.00    +0.000 A 
ATOM     18  O   UNL     1      38.084  20.551  11.773  0.00  0.00    +0.000 OA
ATOM     19  C   UNL     1      36.177  21.776  10.911  0.00  0.00    +0.000 A 
ATOM     20  C   UNL     1      34.817  21.987  10.801  0.00  0.00    +0.000 A 
ENDBRANCH   5  14
TORSDOF 1
ENDMDL
MODEL 5
REMARK VINA RESULT:      -6.8     18.902     20.590
REMARK  Name = 
REMARK  1 active torsions:
REMARK  status: ('A' for Active; 'I' for Inactive)
REMARK    1  A    between atoms: C_5  and  C_6
REMARK                            x       y       z     vdW  Elec       q    Type
REMARK                         _______ _______ _______ _____ _____    ______ ____
ROOT
ATOM      1  O   UNL     1      33.615   3.273  32.438  0.00  0.00    +0.000 OA
ATOM      2  C   UNL     1      33.672   2.739  33.567  0.00  0.00    +0.000 A 
ATOM      3  C   UNL     1      33.605   1.380  33.775  0.00  0.00    +0.000 A 
ATOM      4  O   UNL     1      33.467   0.538  32.682  0.00  0.00    +0.000 OA
ATOM      5  C   UNL     1      33.672   0.841  35.036  0.00  0.00    +0.000 A 
ATOM      6  O   UNL     1      33.802   1.652  36.053  0.00  0.00    +0.000 OA
ATOM      7  C   UNL     1      33.872   2.976  35.906  0.00  0.00    +0.000 A 
ATOM      8  C   UNL     1      34.009   3.744  37.036  0.00  0.00    +0.000 A 
ATOM      9  C   UNL     1      34.084   5.108  36.937  0.00  0.00    +0.000 A 
ATOM     10  C   UNL     1      34.022   5.689  35.702  0.00  0.00    +0.000 A 
ATOM     11  O   UNL     1      34.097   7.074  35.563  0.00  0.00    +0.000 OA
ATOM     12  C   UNL     1      33.885   4.934  34.557  0.00  0.00    +0.000 A 
ATOM     13  C   UNL     1      33.809   3.548  34.678  0.00  0.00    +0.000 A 
ENDROOT
BRANCH   5  14
ATOM     14  C   UNL     1      33.593  -0.607  35.171  0.00  0.00    +0.000 A 
ATOM     15  C   UNL     1      32.384  -1.265  35.241  0.00  0.00    +0.000 A 
ATOM     16  C   UNL     1      32.291  -2.637  35.368  0.00  0.00    +0.000 A 
ATOM     17  C   UNL     1      33.430  -3.416  35.431  0.00  0.00    +0.000 A 
ATOM     18  O   UNL     1      33.348  -4.798  35.559  0.00  0.00    +0.000 OA
ATOM     19  C   UNL     1      34.639  -2.756  35.360  0.00  0.00    +0.000 A 
ATOM     20  C   UNL     1      34.732  -1.384  35.233  0.00  0.00    +0.000 A 
ENDBRANCH   5  14
TORSDOF 1
ENDMDL
MODEL 6
REMARK VINA RESULT:      -6.7      3.229      5.211
REMARK  Name = 
REMARK  1 active torsions:
REMARK  status: ('A' for Active; 'I' for Inactive)
REMARK    1  A    between atoms: C_5  and  C_6
REMARK                            x       y       z     vdW  Elec       q    Type
REMARK                         _______ _______ _______ _____ _____    ______ ____
ROOT
ATOM      1  O   UNL     1      16.943   9.105  40.013  0.00  0.00    +0.000 OA
ATOM      2  C   UNL     1      17.415   9.819  39.102  0.00  0.00    +0.000 A 
ATOM      3  C   UNL     1      18.754   9.878  38.790  0.00  0.00    +0.000 A 
ATOM      4  O   UNL     1      19.647   9.107  39.518  0.00  0.00    +0.000 OA
ATOM      5  C   UNL     1      19.223  10.679  37.778  0.00  0.00    +0.000 A 
ATOM      6  O   UNL     1      18.363  11.397  37.105  0.00  0.00    +0.000 OA
ATOM      7  C   UNL     1      17.055  11.377  37.365  0.00  0.00    +0.000 A 
ATOM      8  C   UNL     1      16.233  12.168  36.601  0.00  0.00    +0.000 A 
ATOM      9  C   UNL     1      14.883  12.182  36.832  0.00  0.00    +0.000 A 
ATOM     10  C   UNL     1      14.371  11.400  37.828  0.00  0.00    +0.000 A 
ATOM     11  O   UNL     1      13.002  11.389  38.090  0.00  0.00    +0.000 OA
ATOM     12  C   UNL     1      15.181  10.600  38.605  0.00  0.00    +0.000 A 
ATOM     13  C   UNL     1      16.552  10.600  38.356  0.00  0.00    +0.000 A 
ENDROOT
BRANCH   5  14
ATOM     14  C   UNL     1      20.655  10.684  37.512  0.00  0.00    +0.000 A 
ATOM     15  C   UNL     1      21.504  11.578  38.128  0.00  0.00    +0.000 A 
ATOM     16  C   UNL     1      22.864  11.596  37.887  0.00  0.00    +0.000 A 
ATOM     17  C   UNL     1      23.434  10.701  37.003  0.00  0.00    +0.000 A 
ATOM     18  O   UNL     1      24.802  10.710  36.755  0.00  0.00    +0.000 OA
ATOM     19  C   UNL     1      22.582   9.806  36.389  0.00  0.00    +0.000 A 
ATOM     20  C   UNL     1      21.223   9.788  36.630  0.00  0.00    +0.000 A 
ENDBRANCH   5  14
TORSDOF 1
ENDMDL
MODEL 7
REMARK VINA RESULT:      -6.7     18.816     20.724
REMARK  Name = 
REMARK  1 active torsions:
REMARK  status: ('A' for Active; 'I' for Inactive)
REMARK    1  A    between atoms: C_5  and  C_6
REMARK                            x       y       z     vdW  Elec       q    Type
REMARK                         _______ _______ _______ _____ _____    ______ ____
ROOT
ATOM      1  O   UNL     1      34.566   2.287  37.728  0.00  0.00    +0.000 OA
ATOM      2  C   UNL     1      34.137   1.975  36.596  0.00  0.00    +0.000 A 
ATOM      3  C   UNL     1      33.866   0.682  36.210  0.00  0.00    +0.000 A 
ATOM      4  O   UNL     1      34.074  -0.347  37.114  0.00  0.00    +0.000 OA
ATOM      5  C   UNL     1      33.395   0.390  34.953  0.00  0.00    +0.000 A 
ATOM      6  O   UNL     1      33.206   1.376  34.116  0.00  0.00    +0.000 OA
ATOM      7  C   UNL     1      33.452   2.647  34.440  0.00  0.00    +0.000 A 
ATOM      8  C   UNL     1      33.222   3.611  33.490  0.00  0.00    +0.000 A 
ATOM      9  C   UNL     1      33.461   4.929  33.775  0.00  0.00    +0.000 A 
ATOM     10  C   UNL     1      33.929   5.267  35.012  0.00  0.00    +0.000 A 
ATOM     11  O   UNL     1      34.183   6.598  35.338  0.00  0.00    +0.000 OA
ATOM     12  C   UNL     1      34.167   4.312  35.978  0.00  0.00    +0.000 A 
ATOM     13  C   UNL     1      33.918   2.977  35.670  0.00  0.00    +0.000 A 
ENDROOT
BRANCH   5  14
ATOM     14  C   UNL     1      33.133  -1.004  34.623  0.00  0.00    +0.000 A 
ATOM     15  C   UNL     1      33.830  -1.658  33.630  0.00  0.00    +0.000 A 
ATOM     16  C   UNL     1      33.595  -2.979  33.304  0.00  0.00    +0.000 A 
ATOM     17  C   UNL     1      32.633  -3.708  33.976  0.00  0.00    +0.000 A 
ATOM     18  O   UNL     1      32.389  -5.039  33.656  0.00  0.00    +0.000 OA
ATOM     19  C   UNL     1      31.937  -3.052  34.970  0.00  0.00    +0.000 A 
ATOM     20  C   UNL     1      32.173  -1.731  35.295  0.00  0.00    +0.000 A 
ENDBRANCH   5  14
TORSDOF 1
ENDMDL
MODEL 8
REMARK VINA RESULT:      -6.6     21.513     23.867
REMARK  Name = 
REMARK  1 active torsions:
REMARK  status: ('A' for Active; 'I' for Inactive)
REMARK    1  A    between atoms: C_5  and  C_6
REMARK                            x       y       z     vdW  Elec       q    Type
REMARK                         _______ _______ _______ _____ _____    ______ ____
ROOT
ATOM      1  O   UNL     1      31.997  -4.621  35.913  0.00  0.00    +0.000 OA
ATOM      2  C   UNL     1      32.552  -4.151  34.896  0.00  0.00    +0.000 A 
ATOM      3  C   UNL     1      32.828  -4.887  33.766  0.00  0.00    +0.000 A 
ATOM      4  O   UNL     1      32.476  -6.227  33.734  0.00  0.00    +0.000 OA
ATOM      5  C   UNL     1      33.440  -4.325  32.673  0.00  0.00    +0.000 A 
ATOM      6  O   UNL     1      33.763  -3.059  32.724  0.00  0.00    +0.000 OA
ATOM      7  C   UNL     1      33.518  -2.301  33.794  0.00  0.00    +0.000 A 
ATOM      8  C   UNL     1      33.895  -0.981  33.750  0.00  0.00    +0.000 A 
ATOM      9  C   UNL     1      33.667  -0.164  34.825  0.00  0.00    +0.000 A 
ATOM     10  C   UNL     1      33.059  -0.680  35.934  0.00  0.00    +0.000 A 
ATOM     11  O   UNL     1      32.810   0.123  37.046  0.00  0.00    +0.000 OA
ATOM     12  C   UNL     1      32.674  -2.002  35.996  0.00  0.00    +0.000 A 
ATOM     13  C   UNL     1      32.916  -2.818  34.894  0.00  0.00    +0.000 A 
ENDROOT
BRANCH   5  14
ATOM     14  C   UNL     1      33.696  -5.172  31.516  0.00  0.00    +0.000 A 
ATOM     15  C   UNL     1      32.826  -5.225  30.448  0.00  0.00    +0.000 A 
ATOM     16  C   UNL     1      33.054  -6.022  29.344  0.00  0.00    +0.000 A 
ATOM     17  C   UNL     1      34.184  -6.812  29.268  0.00  0.00    +0.000 A 
ATOM     18  O   UNL     1      34.422  -7.618  28.160  0.00  0.00    +0.000 OA
ATOM     19  C   UNL     1      35.054  -6.758  30.337  0.00  0.00    +0.000 A 
ATOM     20  C   UNL     1      34.826  -5.960  31.441  0.00  0.00    +0.000 A 
ENDBRANCH   5  14
TORSDOF 1
ENDMDL
MODEL 9
REMARK VINA RESULT:      -6.4     22.740     24.765
REMARK  Name = 
REMARK  1 active torsions:
REMARK  status: ('A' for Active; 'I' for Inactive)
REMARK    1  A    between atoms: C_5  and  C_6
REMARK                            x       y       z     vdW  Elec       q    Type
REMARK                         _______ _______ _______ _____ _____    ______ ____
ROOT
ATOM      1  O   UNL     1      36.156  -7.293  32.619  0.00  0.00    +0.000 OA
ATOM      2  C   UNL     1      35.283  -6.486  32.232  0.00  0.00    +0.000 A 
ATOM      3  C   UNL     1      34.783  -5.468  33.011  0.00  0.00    +0.000 A 
ATOM      4  O   UNL     1      35.262  -5.312  34.302  0.00  0.00    +0.000 OA
ATOM      5  C   UNL     1      33.823  -4.606  32.539  0.00  0.00    +0.000 A 
ATOM      6  O   UNL     1      33.385  -4.770  31.319  0.00  0.00    +0.000 OA
ATOM      7  C   UNL     1      33.836  -5.741  30.522  0.00  0.00    +0.000 A 
ATOM      8  C   UNL     1      33.313  -5.831  29.256  0.00  0.00    +0.000 A 
ATOM      9  C   UNL     1      33.744  -6.811  28.401  0.00  0.00    +0.000 A 
ATOM     10  C   UNL     1      34.698  -7.691  28.827  0.00  0.00    +0.000 A 
ATOM     11  O   UNL     1      35.160  -8.701  27.984  0.00  0.00    +0.000 OA
ATOM     12  C   UNL     1      35.234  -7.616  30.095  0.00  0.00    +0.000 A 
ATOM     13  C   UNL     1      34.783  -6.613  30.950  0.00  0.00    +0.000 A 
ENDROOT
BRANCH   5  14
ATOM     14  C   UNL     1      33.347  -3.554  33.428  0.00  0.00    +0.000 A 
ATOM     15  C   UNL     1      32.401  -3.799  34.400  0.00  0.00    +0.000 A 
ATOM     16  C   UNL     1      31.939  -2.815  35.250  0.00  0.00    +0.000 A 
ATOM     17  C   UNL     1      32.416  -1.522  35.155  0.00  0.00    +0.000 A 
ATOM     18  O   UNL     1      31.957  -0.524  36.008  0.00  0.00    +0.000 OA
ATOM     19  C   UNL     1      33.363  -1.279  34.182  0.00  0.00    +0.000 A 
ATOM     20  C   UNL     1      33.825  -2.264  33.332  0.00  0.00    +0.000 A 
ENDBRANCH   5  14
TORSDOF 1
ENDMDL
MODEL 10
REMARK VINA RESULT:      -6.4      2.304      7.348
REMARK  Name = 
REMARK  1 active torsions:
REMARK  status: ('A' for Active; 'I' for Inactive)
REMARK    1  A    between atoms: C_5  and  C_6
REMARK                            x       y       z     vdW  Elec       q    Type
REMARK                         _______ _______ _______ _____ _____    ______ ____
ROOT
ATOM      1  O   UNL     1      20.547   9.378  39.690  0.00  0.00    +0.000 OA
ATOM      2  C   UNL     1      19.360   9.554  39.341  0.00  0.00    +0.000 A 
ATOM      3  C   UNL     1      18.978   9.871  38.057  0.00  0.00    +0.000 A 
ATOM      4  O   UNL     1      19.951  10.007  37.080  0.00  0.00    +0.000 OA
ATOM      5  C   UNL     1      17.658  10.054  37.724  0.00  0.00    +0.000 A 
ATOM      6  O   UNL     1      16.756   9.921  38.660  0.00  0.00    +0.000 OA
ATOM      7  C   UNL     1      17.072   9.614  39.920  0.00  0.00    +0.000 A 
ATOM      8  C   UNL     1      16.052   9.496  40.831  0.00  0.00    +0.000 A 
ATOM      9  C   UNL     1      16.327   9.184  42.136  0.00  0.00    +0.000 A 
ATOM     10  C   UNL     1      17.626   8.993  42.513  0.00  0.00    +0.000 A 
ATOM     11  O   UNL     1      17.943   8.673  43.833  0.00  0.00    +0.000 OA
ATOM     12  C   UNL     1      18.663   9.107  41.613  0.00  0.00    +0.000 A 
ATOM     13  C   UNL     1      18.363   9.426  40.290  0.00  0.00    +0.000 A 
ENDROOT
BRANCH   5  14
ATOM     14  C   UNL     1      17.337  10.388  36.343  0.00  0.00    +0.000 A 
ATOM     15  C   UNL     1      17.507   9.480  35.319  0.00  0.00    +0.000 A 
ATOM     16  C   UNL     1      17.207   9.780  34.005  0.00  0.00    +0.000 A 
ATOM     17  C   UNL     1      16.718  11.025  33.661  0.00  0.00    +0.000 A 
ATOM     18  O   UNL     1      16.413  11.336  32.340  0.00  0.00    +0.000 OA
ATOM     19  C   UNL     1      16.548  11.931  34.687  0.00  0.00    +0.000 A 
ATOM     20  C   UNL     1      16.848  11.631  36.001  0.00  0.00    +0.000 A 
ENDBRANCH   5  14
TORSDOF 1
ENDMDL
