MODEL 1
REMARK VINA RESULT:      -7.8      0.000      0.000
REMARK  Name = 
REMARK  4 active torsions:
REMARK  status: ('A' for Active; 'I' for Inactive)
REMARK    1  A    between atoms: C_3  and  C_4
REMARK    2  A    between atoms: C_5  and  C_6
REMARK    3  A    between atoms: C_10  and  C_11
REMARK    4  A    between atoms: C_18  and  C_19
REMARK                            x       y       z     vdW  Elec       q    Type
REMARK                         _______ _______ _______ _____ _____    ______ ____
ROOT
ATOM      1  C   UNL     1      15.396  11.690  35.305  0.00  0.00    +0.000 C 
ATOM      2  C   UNL     1      15.596  12.154  36.528  0.00  0.00    +0.000 C 
ENDROOT
BRANCH   1   5
ATOM      3  C   UNL     1      15.789  11.216  32.536  0.00  0.00    +0.000 C 
ATOM      4  C   UNL     1      14.948  12.354  32.961  0.00  0.00    +0.000 A 
ATOM      5  C   UNL     1      14.773  12.562  34.302  0.00  0.00    +0.000 A 
ATOM      6  C   UNL     1      13.979  13.638  34.671  0.00  0.00    +0.000 A 
ATOM      7  C   UNL     1      13.386  14.470  33.730  0.00  0.00    +0.000 A 
ATOM      8  C   UNL     1      13.603  14.204  32.389  0.00  0.00    +0.000 A 
ATOM      9  C   UNL     1      14.387  13.143  31.984  0.00  0.00    +0.000 A 
BRANCH   9  10
ATOM     10  C   UNL     1      14.621  12.858  30.523  0.00  0.00    +0.000 C 
ATOM     11  O   UNL     1      15.631  13.636  30.016  0.00  0.00    +0.000 OA
ENDBRANCH   9  10
ENDBRANCH   1   5
BRANCH   2  12
ATOM     12  C   UNL     1      16.212  11.316  37.549  0.00  0.00    +0.000 A 
ATOM     13  C   UNL     1      17.564  11.053  37.475  0.00  0.00    +0.000 A 
ATOM     14  C   UNL     1      18.148  10.255  38.447  0.00  0.00    +0.000 A 
ATOM     15  C   UNL     1      17.405   9.714  39.491  0.00  0.00    +0.000 A 
ATOM     16  C   UNL     1      16.050   9.978  39.564  0.00  0.00    +0.000 A 
ATOM     17  C   UNL     1      15.502  10.773  38.584  0.00  0.00    +0.000 A 
ATOM     18  C   UNL     1      14.043  11.067  38.648  0.00  0.00    +0.000 C 
BRANCH  16  19
ATOM     19  C   UNL     1      15.186   9.437  40.650  0.00  0.00    +0.000 C 
ATOM     20  O   UNL     1      15.926   9.476  41.831  0.00  0.00    +0.000 OA
ENDBRANCH  16  19
ENDBRANCH   2  12
TORSDOF 4
ENDMDL
MODEL 2
REMARK VINA RESULT:      -7.7      0.106      7.812
REMARK  Name = 
REMARK  4 active torsions:
REMARK  status: ('A' for Active; 'I' for Inactive)
REMARK    1  A    between atoms: C_3  and  C_4
REMARK    2  A    between atoms: C_5  and  C_6
REMARK    3  A    between atoms: C_10  and  C_11
REMARK    4  A    between atoms: C_18  and  C_19
REMARK                            x       y       z     vdW  Elec       q    Type
REMARK                         _______ _______ _______ _____ _____    ______ ____
ROOT
ATOM      1  C   UNL     1      15.452  12.089  36.557  0.00  0.00    +0.000 C 
ATOM      2  C   UNL     1      15.528  11.762  35.278  0.00  0.00    +0.000 C 
ENDROOT
BRANCH   1   5
ATOM      3  C   UNL     1      14.024  11.015  38.762  0.00  0.00    +0.000 C 
ATOM      4  C   UNL     1      15.466  10.721  38.623  0.00  0.00    +0.000 A 
ATOM      5  C   UNL     1      16.133  11.250  37.552  0.00  0.00    +0.000 A 
ATOM      6  C   UNL     1      17.484  10.957  37.448  0.00  0.00    +0.000 A 
ATOM      7  C   UNL     1      18.139  10.166  38.383  0.00  0.00    +0.000 A 
ATOM      8  C   UNL     1      17.406   9.662  39.444  0.00  0.00    +0.000 A 
ATOM      9  C   UNL     1      16.059   9.931  39.580  0.00  0.00    +0.000 A 
BRANCH   9  10
ATOM     10  C   UNL     1      15.266   9.381  40.737  0.00  0.00    +0.000 C 
ATOM     11  O   UNL     1      15.925   9.560  41.926  0.00  0.00    +0.000 OA
ENDBRANCH   9  10
ENDBRANCH   1   5
BRANCH   2  12
ATOM     12  C   UNL     1      14.865  12.572  34.264  0.00  0.00    +0.000 A 
ATOM     13  C   UNL     1      14.060  13.619  34.661  0.00  0.00    +0.000 A 
ATOM     14  C   UNL     1      13.430  14.388  33.695  0.00  0.00    +0.000 A 
ATOM     15  C   UNL     1      13.588  14.129  32.337  0.00  0.00    +0.000 A 
ATOM     16  C   UNL     1      14.395  13.079  31.940  0.00  0.00    +0.000 A 
ATOM     17  C   UNL     1      15.005  12.336  32.923  0.00  0.00    +0.000 A 
ATOM     18  C   UNL     1      15.877  11.201  32.511  0.00  0.00    +0.000 C 
BRANCH  16  19
ATOM     19  C   UNL     1      14.616  12.737  30.507  0.00  0.00    +0.000 C 
ATOM     20  O   UNL     1      15.611  13.586  30.024  0.00  0.00    +0.000 OA
ENDBRANCH  16  19
ENDBRANCH   2  12
TORSDOF 4
ENDMDL
MODEL 3
REMARK VINA RESULT:      -7.0      1.265      7.615
REMARK  Name = 
REMARK  4 active torsions:
REMARK  status: ('A' for Active; 'I' for Inactive)
REMARK    1  A    between atoms: C_3  and  C_4
REMARK    2  A    between atoms: C_5  and  C_6
REMARK    3  A    between atoms: C_10  and  C_11
REMARK    4  A    between atoms: C_18  and  C_19
REMARK                            x       y       z     vdW  Elec       q    Type
REMARK                         _______ _______ _______ _____ _____    ______ ____
ROOT
ATOM      1  C   UNL     1      17.181  11.124  35.638  0.00  0.00    +0.000 C 
ATOM      2  C   UNL     1      16.540  10.396  34.738  0.00  0.00    +0.000 C 
ENDROOT
BRANCH   1   5
ATOM      3  C   UNL     1      15.473  11.001  37.900  0.00  0.00    +0.000 C 
ATOM      4  C   UNL     1      16.828  10.417  37.986  0.00  0.00    +0.000 A 
ATOM      5  C   UNL     1      17.633  10.488  36.882  0.00  0.00    +0.000 A 
ATOM      6  C   UNL     1      18.898   9.931  36.992  0.00  0.00    +0.000 A 
ATOM      7  C   UNL     1      19.336   9.328  38.164  0.00  0.00    +0.000 A 
ATOM      8  C   UNL     1      18.472   9.289  39.245  0.00  0.00    +0.000 A 
ATOM      9  C   UNL     1      17.205   9.832  39.173  0.00  0.00    +0.000 A 
BRANCH   9  10
ATOM     10  C   UNL     1      16.269   9.789  40.352  0.00  0.00    +0.000 C 
ATOM     11  O   UNL     1      16.267   8.552  40.945  0.00  0.00    +0.000 OA
ENDBRANCH   9  10
ENDBRANCH   1   5
BRANCH   2  12
ATOM     12  C   UNL     1      16.078  10.993  33.492  0.00  0.00    +0.000 A 
ATOM     13  C   UNL     1      16.539  10.489  32.294  0.00  0.00    +0.000 A 
ATOM     14  C   UNL     1      16.098  11.059  31.110  0.00  0.00    +0.000 A 
ATOM     15  C   UNL     1      15.207  12.127  31.100  0.00  0.00    +0.000 A 
ATOM     16  C   UNL     1      14.745  12.632  32.301  0.00  0.00    +0.000 A 
ATOM     17  C   UNL     1      15.202  12.044  33.458  0.00  0.00    +0.000 A 
ATOM     18  C   UNL     1      14.714  12.577  34.760  0.00  0.00    +0.000 C 
BRANCH  16  19
ATOM     19  C   UNL     1      13.789  13.772  32.376  0.00  0.00    +0.000 C 
ATOM     20  O   UNL     1      13.289  13.983  31.092  0.00  0.00    +0.000 OA
ENDBRANCH  16  19
ENDBRANCH   2  12
TORSDOF 4
ENDMDL
MODEL 4
REMARK VINA RESULT:      -6.8      1.180      1.365
REMARK  Name = 
REMARK  4 active torsions:
REMARK  status: ('A' for Active; 'I' for Inactive)
REMARK    1  A    between atoms: C_3  and  C_4
REMARK    2  A    between atoms: C_5  and  C_6
REMARK    3  A    between atoms: C_10  and  C_11
REMARK    4  A    between atoms: C_18  and  C_19
REMARK                            x       y       z     vdW  Elec       q    Type
REMARK                         _______ _______ _______ _____ _____    ______ ____
ROOT
ATOM      1  C   UNL     1      16.189  11.077  36.030  0.00  0.00    +0.000 C 
ATOM      2  C   UNL     1      15.881  11.332  37.291  0.00  0.00    +0.000 C 
ENDROOT
BRANCH   1   5
ATOM      3  C   UNL     1      16.795  10.574  33.305  0.00  0.00    +0.000 C 
ATOM      4  C   UNL     1      15.781  11.594  33.642  0.00  0.00    +0.000 A 
ATOM      5  C   UNL     1      15.505  11.818  34.963  0.00  0.00    +0.000 A 
ATOM      6  C   UNL     1      14.549  12.781  35.249  0.00  0.00    +0.000 A 
ATOM      7  C   UNL     1      13.896  13.489  34.248  0.00  0.00    +0.000 A 
ATOM      8  C   UNL     1      14.222  13.214  32.931  0.00  0.00    +0.000 A 
ATOM      9  C   UNL     1      15.168  12.262  32.607  0.00  0.00    +0.000 A 
BRANCH   9  10
ATOM     10  C   UNL     1      15.519  11.967  31.172  0.00  0.00    +0.000 C 
ATOM     11  O   UNL     1      14.512  11.282  30.541  0.00  0.00    +0.000 OA
ENDBRANCH   9  10
ENDBRANCH   1   5
BRANCH   2  12
ATOM     12  C   UNL     1      16.540  10.615  38.376  0.00  0.00    +0.000 A 
ATOM     13  C   UNL     1      17.903  10.414  38.317  0.00  0.00    +0.000 A 
ATOM     14  C   UNL     1      18.528   9.732  39.349  0.00  0.00    +0.000 A 
ATOM     15  C   UNL     1      17.815   9.245  40.440  0.00  0.00    +0.000 A 
ATOM     16  C   UNL     1      16.449   9.447  40.499  0.00  0.00    +0.000 A 
ATOM     17  C   UNL     1      15.860  10.128  39.458  0.00  0.00    +0.000 A 
ATOM     18  C   UNL     1      14.389  10.354  39.506  0.00  0.00    +0.000 C 
BRANCH  16  19
ATOM     19  C   UNL     1      15.615   8.958  41.632  0.00  0.00    +0.000 C 
ATOM     20  O   UNL     1      16.023   7.657  41.920  0.00  0.00    +0.000 OA
ENDBRANCH  16  19
ENDBRANCH   2  12
TORSDOF 4
ENDMDL
MODEL 5
REMARK VINA RESULT:      -6.6      2.222      7.718
REMARK  Name = 
REMARK  4 active torsions:
REMARK  status: ('A' for Active; 'I' for Inactive)
REMARK    1  A    between atoms: C_3  and  C_4
REMARK    2  A    between atoms: C_5  and  C_6
REMARK    3  A    between atoms: C_10  and  C_11
REMARK    4  A    between atoms: C_18  and  C_19
REMARK                            x       y       z     vdW  Elec       q    Type
REMARK                         _______ _______ _______ _____ _____    ______ ____
ROOT
ATOM      1  C   UNL     1      17.295  11.799  36.563  0.00  0.00    +0.000 C 
ATOM      2  C   UNL     1      16.233  11.254  35.994  0.00  0.00    +0.000 C 
ENDROOT
BRANCH   1   5
ATOM      3  C   UNL     1      19.509  12.964  37.902  0.00  0.00    +0.000 C 
ATOM      4  C   UNL     1      19.019  11.639  38.335  0.00  0.00    +0.000 A 
ATOM      5  C   UNL     1      17.950  11.098  37.675  0.00  0.00    +0.000 A 
ATOM      6  C   UNL     1      17.512   9.854  38.104  0.00  0.00    +0.000 A 
ATOM      7  C   UNL     1      18.124   9.181  39.154  0.00  0.00    +0.000 A 
ATOM      8  C   UNL     1      19.201   9.784  39.780  0.00  0.00    +0.000 A 
ATOM      9  C   UNL     1      19.665  11.021  39.382  0.00  0.00    +0.000 A 
BRANCH   9  10
ATOM     10  C   UNL     1      20.839  11.673  40.066  0.00  0.00    +0.000 C 
ATOM     11  O   UNL     1      22.025  11.113  39.667  0.00  0.00    +0.000 OA
ENDBRANCH   9  10
ENDBRANCH   1   5
BRANCH   2  12
ATOM     12  C   UNL     1      15.558  11.922  34.888  0.00  0.00    +0.000 A 
ATOM     13  C   UNL     1      14.619  12.894  35.163  0.00  0.00    +0.000 A 
ATOM     14  C   UNL     1      13.979  13.528  34.109  0.00  0.00    +0.000 A 
ATOM     15  C   UNL     1      14.258  13.207  32.784  0.00  0.00    +0.000 A 
ATOM     16  C   UNL     1      15.199  12.232  32.510  0.00  0.00    +0.000 A 
ATOM     17  C   UNL     1      15.816  11.623  33.578  0.00  0.00    +0.000 A 
ATOM     18  C   UNL     1      16.833  10.571  33.299  0.00  0.00    +0.000 C 
BRANCH  16  19
ATOM     19  C   UNL     1      15.556  11.831  31.120  0.00  0.00    +0.000 C 
ATOM     20  O   UNL     1      14.424  11.249  30.551  0.00  0.00    +0.000 OA
ENDBRANCH  16  19
ENDBRANCH   2  12
TORSDOF 4
ENDMDL
MODEL 6
REMARK VINA RESULT:      -6.5     18.585     21.252
REMARK  Name = 
REMARK  4 active torsions:
REMARK  status: ('A' for Active; 'I' for Inactive)
REMARK    1  A    between atoms: C_3  and  C_4
REMARK    2  A    between atoms: C_5  and  C_6
REMARK    3  A    between atoms: C_10  and  C_11
REMARK    4  A    between atoms: C_18  and  C_19
REMARK                            x       y       z     vdW  Elec       q    Type
REMARK                         _______ _______ _______ _____ _____    ______ ____
ROOT
ATOM      1  C   UNL     1      31.121  22.867  28.082  0.00  0.00    +0.000 C 
ATOM      2  C   UNL     1      30.557  22.079  27.181  0.00  0.00    +0.000 C 
ENDROOT
BRANCH   1   5
ATOM      3  C   UNL     1      29.458  22.822  30.380  0.00  0.00    +0.000 C 
ATOM      4  C   UNL     1      30.819  22.252  30.462  0.00  0.00    +0.000 A 
ATOM      5  C   UNL     1      31.602  22.285  29.341  0.00  0.00    +0.000 A 
ATOM      6  C   UNL     1      32.874  21.742  29.448  0.00  0.00    +0.000 A 
ATOM      7  C   UNL     1      33.340  21.189  30.634  0.00  0.00    +0.000 A 
ATOM      8  C   UNL     1      32.497  21.187  31.733  0.00  0.00    +0.000 A 
ATOM      9  C   UNL     1      31.225  21.718  31.664  0.00  0.00    +0.000 A 
BRANCH   9  10
ATOM     10  C   UNL     1      30.311  21.714  32.862  0.00  0.00    +0.000 C 
ATOM     11  O   UNL     1      30.840  20.979  33.892  0.00  0.00    +0.000 OA
ENDBRANCH   9  10
ENDBRANCH   1   5
BRANCH   2  12
ATOM     12  C   UNL     1      30.069  22.623  25.920  0.00  0.00    +0.000 A 
ATOM     13  C   UNL     1      30.980  23.046  24.975  0.00  0.00    +0.000 A 
ATOM     14  C   UNL     1      30.513  23.564  23.776  0.00  0.00    +0.000 A 
ATOM     15  C   UNL     1      29.153  23.668  23.505  0.00  0.00    +0.000 A 
ATOM     16  C   UNL     1      28.241  23.244  24.453  0.00  0.00    +0.000 A 
ATOM     17  C   UNL     1      28.737  22.736  25.632  0.00  0.00    +0.000 A 
ATOM     18  C   UNL     1      27.767  22.274  26.664  0.00  0.00    +0.000 C 
BRANCH  16  19
ATOM     19  C   UNL     1      26.769  23.321  24.240  0.00  0.00    +0.000 C 
ATOM     20  O   UNL     1      26.529  23.072  22.889  0.00  0.00    +0.000 OA
ENDBRANCH  16  19
ENDBRANCH   2  12
TORSDOF 4
ENDMDL
MODEL 7
REMARK VINA RESULT:      -6.5     18.647     20.017
REMARK  Name = 
REMARK  4 active torsions:
REMARK  status: ('A' for Active; 'I' for Inactive)
REMARK    1  A    between atoms: C_3  and  C_4
REMARK    2  A    between atoms: C_5  and  C_6
REMARK    3  A    between atoms: C_10  and  C_11
REMARK    4  A    between atoms: C_18  and  C_19
REMARK                            x       y       z     vdW  Elec       q    Type
REMARK                         _______ _______ _______ _____ _____    ______ ____
ROOT
ATOM      1  C   UNL     1      30.697  21.969  27.309  0.00  0.00    +0.000 C 
ATOM      2  C   UNL     1      31.243  22.763  28.216  0.00  0.00    +0.000 C 
ENDROOT
BRANCH   1   5
ATOM      3  C   UNL     1      27.923  22.218  26.765  0.00  0.00    +0.000 C 
ATOM      4  C   UNL     1      28.901  22.675  25.755  0.00  0.00    +0.000 A 
ATOM      5  C   UNL     1      30.233  22.545  26.041  0.00  0.00    +0.000 A 
ATOM      6  C   UNL     1      31.127  22.983  25.075  0.00  0.00    +0.000 A 
ATOM      7  C   UNL     1      30.699  23.529  23.871  0.00  0.00    +0.000 A 
ATOM      8  C   UNL     1      29.338  23.632  23.645  0.00  0.00    +0.000 A 
ATOM      9  C   UNL     1      28.418  23.208  24.582  0.00  0.00    +0.000 A 
BRANCH   9  10
ATOM     10  C   UNL     1      26.937  23.322  24.330  0.00  0.00    +0.000 C 
ATOM     11  O   UNL     1      26.632  23.073  23.017  0.00  0.00    +0.000 OA
ENDBRANCH   9  10
ENDBRANCH   1   5
BRANCH   2  12
ATOM     12  C   UNL     1      31.715  22.225  29.486  0.00  0.00    +0.000 A 
ATOM     13  C   UNL     1      32.999  21.730  29.569  0.00  0.00    +0.000 A 
ATOM     14  C   UNL     1      33.446  21.218  30.778  0.00  0.00    +0.000 A 
ATOM     15  C   UNL     1      32.632  21.191  31.906  0.00  0.00    +0.000 A 
ATOM     16  C   UNL     1      31.345  21.688  31.821  0.00  0.00    +0.000 A 
ATOM     17  C   UNL     1      30.932  22.188  30.608  0.00  0.00    +0.000 A 
ATOM     18  C   UNL     1      29.548  22.727  30.500  0.00  0.00    +0.000 C 
BRANCH  16  19
ATOM     19  C   UNL     1      30.411  21.696  32.983  0.00  0.00    +0.000 C 
ATOM     20  O   UNL     1      31.074  21.101  34.055  0.00  0.00    +0.000 OA
ENDBRANCH  16  19
ENDBRANCH   2  12
TORSDOF 4
ENDMDL
MODEL 8
REMARK VINA RESULT:      -6.5      1.858      8.248
REMARK  Name = 
REMARK  4 active torsions:
REMARK  status: ('A' for Active; 'I' for Inactive)
REMARK    1  A    between atoms: C_3  and  C_4
REMARK    2  A    between atoms: C_5  and  C_6
REMARK    3  A    between atoms: C_10  and  C_11
REMARK    4  A    between atoms: C_18  and  C_19
REMARK                            x       y       z     vdW  Elec       q    Type
REMARK                         _______ _______ _______ _____ _____    ______ ____
ROOT
ATOM      1  C   UNL     1      16.873  10.464  38.198  0.00  0.00    +0.000 C 
ATOM      2  C   UNL     1      17.019  10.259  36.899  0.00  0.00    +0.000 C 
ENDROOT
BRANCH   1   5
ATOM      3  C   UNL     1      15.743   9.574  40.644  0.00  0.00    +0.000 C 
ATOM      4  C   UNL     1      17.144   9.226  40.327  0.00  0.00    +0.000 A 
ATOM      5  C   UNL     1      17.667   9.666  39.142  0.00  0.00    +0.000 A 
ATOM      6  C   UNL     1      18.984   9.324  38.872  0.00  0.00    +0.000 A 
ATOM      7  C   UNL     1      19.744   8.571  39.757  0.00  0.00    +0.000 A 
ATOM      8  C   UNL     1      19.154   8.156  40.939  0.00  0.00    +0.000 A 
ATOM      9  C   UNL     1      17.847   8.477  41.242  0.00  0.00    +0.000 A 
BRANCH   9  10
ATOM     10  C   UNL     1      17.210   8.024  42.531  0.00  0.00    +0.000 C 
ATOM     11  O   UNL     1      16.862   6.699  42.479  0.00  0.00    +0.000 OA
ENDBRANCH   9  10
ENDBRANCH   1   5
BRANCH   2  12
ATOM     12  C   UNL     1      16.248  11.033  35.934  0.00  0.00    +0.000 A 
ATOM     13  C   UNL     1      15.251  11.870  36.389  0.00  0.00    +0.000 A 
ATOM     14  C   UNL     1      14.519  12.605  35.469  0.00  0.00    +0.000 A 
ATOM     15  C   UNL     1      14.764  12.518  34.103  0.00  0.00    +0.000 A 
ATOM     16  C   UNL     1      15.763  11.678  33.648  0.00  0.00    +0.000 A 
ATOM     17  C   UNL     1      16.471  10.963  34.586  0.00  0.00    +0.000 A 
ATOM     18  C   UNL     1      17.551  10.054  34.113  0.00  0.00    +0.000 C 
BRANCH  16  19
ATOM     19  C   UNL     1      16.088  11.529  32.202  0.00  0.00    +0.000 C 
ATOM     20  O   UNL     1      15.077  10.761  31.624  0.00  0.00    +0.000 OA
ENDBRANCH  16  19
ENDBRANCH   2  12
TORSDOF 4
ENDMDL
MODEL 9
REMARK VINA RESULT:      -6.5     21.780     23.720
REMARK  Name = 
REMARK  4 active torsions:
REMARK  status: ('A' for Active; 'I' for Inactive)
REMARK    1  A    between atoms: C_3  and  C_4
REMARK    2  A    between atoms: C_5  and  C_6
REMARK    3  A    between atoms: C_10  and  C_11
REMARK    4  A    between atoms: C_18  and  C_19
REMARK                            x       y       z     vdW  Elec       q    Type
REMARK                         _______ _______ _______ _____ _____    ______ ____
ROOT
ATOM      1  C   UNL     1      21.946  -6.780  24.163  0.00  0.00    +0.000 C 
ATOM      2  C   UNL     1      21.584  -7.254  25.344  0.00  0.00    +0.000 C 
ENDROOT
BRANCH   1   5
ATOM      3  C   UNL     1      22.079  -8.806  22.180  0.00  0.00    +0.000 C 
ATOM      4  C   UNL     1      23.327  -8.160  22.638  0.00  0.00    +0.000 A 
ATOM      5  C   UNL     1      23.237  -7.186  23.594  0.00  0.00    +0.000 A 
ATOM      6  C   UNL     1      24.425  -6.598  24.004  0.00  0.00    +0.000 A 
ATOM      7  C   UNL     1      25.652  -6.974  23.473  0.00  0.00    +0.000 A 
ATOM      8  C   UNL     1      25.674  -7.966  22.508  0.00  0.00    +0.000 A 
ATOM      9  C   UNL     1      24.513  -8.573  22.075  0.00  0.00    +0.000 A 
BRANCH   9  10
ATOM     10  C   UNL     1      24.541  -9.654  21.025  0.00  0.00    +0.000 C 
ATOM     11  O   UNL     1      25.721  -9.642  20.326  0.00  0.00    +0.000 OA
ENDBRANCH   9  10
ENDBRANCH   1   5
BRANCH   2  12
ATOM     12  C   UNL     1      20.309  -6.873  25.938  0.00  0.00    +0.000 A 
ATOM     13  C   UNL     1      19.909  -5.555  25.882  0.00  0.00    +0.000 A 
ATOM     14  C   UNL     1      18.696  -5.195  26.448  0.00  0.00    +0.000 A 
ATOM     15  C   UNL     1      17.875  -6.129  27.072  0.00  0.00    +0.000 A 
ATOM     16  C   UNL     1      18.276  -7.450  27.128  0.00  0.00    +0.000 A 
ATOM     17  C   UNL     1      19.485  -7.774  26.556  0.00  0.00    +0.000 A 
ATOM     18  C   UNL     1      19.932  -9.194  26.608  0.00  0.00    +0.000 C 
BRANCH  16  19
ATOM     19  C   UNL     1      17.455  -8.510  27.776  0.00  0.00    +0.000 C 
ATOM     20  O   UNL     1      16.437  -8.852  26.886  0.00  0.00    +0.000 OA
ENDBRANCH  16  19
ENDBRANCH   2  12
TORSDOF 4
ENDMDL
MODEL 10
REMARK VINA RESULT:      -6.4     21.710     23.995
REMARK  Name = 
REMARK  4 active torsions:
REMARK  status: ('A' for Active; 'I' for Inactive)
REMARK    1  A    between atoms: C_3  and  C_4
REMARK    2  A    between atoms: C_5  and  C_6
REMARK    3  A    between atoms: C_10  and  C_11
REMARK    4  A    between atoms: C_18  and  C_19
REMARK                            x       y       z     vdW  Elec       q    Type
REMARK                         _______ _______ _______ _____ _____    ______ ____
ROOT
ATOM      1  C   UNL     1      21.552  -7.284  25.208  0.00  0.00    +0.000 C 
ATOM      2  C   UNL     1      22.089  -6.680  24.160  0.00  0.00    +0.000 C 
ENDROOT
BRANCH   1   5
ATOM      3  C   UNL     1      19.502  -9.060  26.038  0.00  0.00    +0.000 C 
ATOM      4  C   UNL     1      19.293  -7.603  26.173  0.00  0.00    +0.000 A 
ATOM      5  C   UNL     1      20.297  -6.766  25.766  0.00  0.00    +0.000 A 
ATOM      6  C   UNL     1      20.073  -5.405  25.904  0.00  0.00    +0.000 A 
ATOM      7  C   UNL     1      18.888  -4.904  26.430  0.00  0.00    +0.000 A 
ATOM      8  C   UNL     1      17.913  -5.805  26.823  0.00  0.00    +0.000 A 
ATOM      9  C   UNL     1      18.100  -7.167  26.701  0.00  0.00    +0.000 A 
BRANCH   9  10
ATOM     10  C   UNL     1      17.035  -8.142  27.130  0.00  0.00    +0.000 C 
ATOM     11  O   UNL     1      15.922  -8.051  26.333  0.00  0.00    +0.000 OA
ENDBRANCH   9  10
ENDBRANCH   1   5
BRANCH   2  12
ATOM     12  C   UNL     1      23.334  -7.167  23.579  0.00  0.00    +0.000 A 
ATOM     13  C   UNL     1      24.530  -6.634  24.013  0.00  0.00    +0.000 A 
ATOM     14  C   UNL     1      25.713  -7.098  23.459  0.00  0.00    +0.000 A 
ATOM     15  C   UNL     1      25.724  -8.085  22.478  0.00  0.00    +0.000 A 
ATOM     16  C   UNL     1      24.525  -8.618  22.045  0.00  0.00    +0.000 A 
ATOM     17  C   UNL     1      23.369  -8.136  22.614  0.00  0.00    +0.000 A 
ATOM     18  C   UNL     1      22.069  -8.700  22.158  0.00  0.00    +0.000 C 
BRANCH  16  19
ATOM     19  C   UNL     1      24.451  -9.678  21.000  0.00  0.00    +0.000 C 
ATOM     20  O   UNL     1      25.619  -9.600  20.243  0.00  0.00    +0.000 OA
ENDBRANCH  16  19
ENDBRANCH   2  12
TORSDOF 4
ENDMDL
