MODEL 1
REMARK VINA RESULT:      -7.2      0.000      0.000
REMARK  Name = 
REMARK  3 active torsions:
REMARK  status: ('A' for Active; 'I' for Inactive)
REMARK    1  A    between atoms: C_5  and  C_6
REMARK    2  A    between atoms: C_10  and  O_11
REMARK    3  A    between atoms: O_11  and  C_12
REMARK                            x       y       z     vdW  Elec       q    Type
REMARK                         _______ _______ _______ _____ _____    ______ ____
ROOT
ATOM      1  C   UNL     1      18.463  10.192  36.790  0.00  0.00    +0.000 C 
ATOM      2  C   UNL     1      17.086  10.687  36.915  0.00  0.00    +0.000 A 
ATOM      3  C   UNL     1      16.381  10.555  38.073  0.00  0.00    +0.000 A 
ATOM      4  C   UNL     1      15.081  11.019  38.200  0.00  0.00    +0.000 A 
ATOM      5  C   UNL     1      14.444  11.640  37.144  0.00  0.00    +0.000 A 
ATOM      6  C   UNL     1      15.176  11.765  35.981  0.00  0.00    +0.000 A 
ATOM      7  C   UNL     1      16.469  11.309  35.835  0.00  0.00    +0.000 A 
ENDROOT
BRANCH   5   8
ATOM      8  C   UNL     1      13.048  12.134  37.295  0.00  0.00    +0.000 C 
ATOM      9  C   UNL     1      12.073  10.988  37.340  0.00  0.00    +0.000 C 
ATOM     10  C   UNL     1      12.702  13.193  36.305  0.00  0.00    +0.000 C 
ENDBRANCH   5   8
BRANCH   7  11
ATOM     11  O   UNL     1      17.138  11.472  34.631  0.00  0.00    +0.000 OA
BRANCH  11  12
ATOM     12  C   UNL     1      16.398  11.421  33.437  0.00  0.00    +0.000 A 
ATOM     13  C   UNL     1      16.633  12.323  32.412  0.00  0.00    +0.000 A 
ATOM     14  C   UNL     1      15.900  12.266  31.243  0.00  0.00    +0.000 A 
ATOM     15 CL   UNL     1      16.264  13.442  30.001  0.00  0.00    +0.000 Cl
ATOM     16  N   UNL     1      14.952  11.325  31.106  0.00  0.00    +0.000 NA
ATOM     17  C   UNL     1      14.735  10.459  32.108  0.00  0.00    +0.000 A 
ATOM     18  N   UNL     1      13.704   9.460  31.925  0.00  0.00    +0.000 NA
ATOM     19  N   UNL     1      15.442  10.511  33.241  0.00  0.00    +0.000 NA
ENDBRANCH  11  12
ENDBRANCH   7  11
TORSDOF 3
ENDMDL
MODEL 2
REMARK VINA RESULT:      -6.6     17.664     20.266
REMARK  Name = 
REMARK  3 active torsions:
REMARK  status: ('A' for Active; 'I' for Inactive)
REMARK    1  A    between atoms: C_5  and  C_6
REMARK    2  A    between atoms: C_10  and  O_11
REMARK    3  A    between atoms: O_11  and  C_12
REMARK                            x       y       z     vdW  Elec       q    Type
REMARK                         _______ _______ _______ _____ _____    ______ ____
ROOT
ATOM      1  C   UNL     1      30.522  22.471  27.284  0.00  0.00    +0.000 C 
ATOM      2  C   UNL     1      30.014  22.827  25.952  0.00  0.00    +0.000 A 
ATOM      3  C   UNL     1      30.826  23.352  24.993  0.00  0.00    +0.000 A 
ATOM      4  C   UNL     1      30.355  23.690  23.733  0.00  0.00    +0.000 A 
ATOM      5  C   UNL     1      29.028  23.505  23.401  0.00  0.00    +0.000 A 
ATOM      6  C   UNL     1      28.222  22.971  24.386  0.00  0.00    +0.000 A 
ATOM      7  C   UNL     1      28.672  22.629  25.644  0.00  0.00    +0.000 A 
ENDROOT
BRANCH   5   8
ATOM      8  C   UNL     1      28.535  23.872  22.045  0.00  0.00    +0.000 C 
ATOM      9  C   UNL     1      29.318  25.028  21.483  0.00  0.00    +0.000 C 
ATOM     10  C   UNL     1      27.057  24.054  21.999  0.00  0.00    +0.000 C 
ENDBRANCH   5   8
BRANCH   7  11
ATOM     11  O   UNL     1      27.798  22.097  26.581  0.00  0.00    +0.000 OA
BRANCH  11  12
ATOM     12  C   UNL     1      26.957  22.972  27.289  0.00  0.00    +0.000 A 
ATOM     13  C   UNL     1      26.145  23.876  26.625  0.00  0.00    +0.000 A 
ATOM     14  C   UNL     1      25.323  24.734  27.330  0.00  0.00    +0.000 A 
ATOM     15 CL   UNL     1      24.330  25.841  26.411  0.00  0.00    +0.000 Cl
ATOM     16  N   UNL     1      25.316  24.685  28.672  0.00  0.00    +0.000 NA
ATOM     17  C   UNL     1      26.109  23.804  29.302  0.00  0.00    +0.000 A 
ATOM     18  N   UNL     1      26.076  23.780  30.748  0.00  0.00    +0.000 NA
ATOM     19  N   UNL     1      26.906  22.973  28.623  0.00  0.00    +0.000 NA
ENDBRANCH  11  12
ENDBRANCH   7  11
TORSDOF 3
ENDMDL
MODEL 3
REMARK VINA RESULT:      -6.5     17.453     19.569
REMARK  Name = 
REMARK  3 active torsions:
REMARK  status: ('A' for Active; 'I' for Inactive)
REMARK    1  A    between atoms: C_5  and  C_6
REMARK    2  A    between atoms: C_10  and  O_11
REMARK    3  A    between atoms: O_11  and  C_12
REMARK                            x       y       z     vdW  Elec       q    Type
REMARK                         _______ _______ _______ _____ _____    ______ ____
ROOT
ATOM      1  C   UNL     1      24.999  25.417  24.943  0.00  0.00    +0.000 C 
ATOM      2  C   UNL     1      25.349  24.899  26.273  0.00  0.00    +0.000 A 
ATOM      3  C   UNL     1      25.022  25.572  27.412  0.00  0.00    +0.000 A 
ATOM      4  C   UNL     1      25.348  25.091  28.671  0.00  0.00    +0.000 A 
ATOM      5  C   UNL     1      26.024  23.896  28.818  0.00  0.00    +0.000 A 
ATOM      6  C   UNL     1      26.345  23.230  27.653  0.00  0.00    +0.000 A 
ATOM      7  C   UNL     1      26.030  23.692  26.393  0.00  0.00    +0.000 A 
ENDROOT
BRANCH   5   8
ATOM      8  C   UNL     1      26.367  23.391  30.176  0.00  0.00    +0.000 C 
ATOM      9  C   UNL     1      27.433  24.241  30.814  0.00  0.00    +0.000 C 
ATOM     10  C   UNL     1      26.660  21.931  30.190  0.00  0.00    +0.000 C 
ENDBRANCH   5   8
BRANCH   7  11
ATOM     11  O   UNL     1      26.389  22.963  25.269  0.00  0.00    +0.000 OA
BRANCH  11  12
ATOM     12  C   UNL     1      27.661  23.171  24.709  0.00  0.00    +0.000 A 
ATOM     13  C   UNL     1      28.807  23.047  25.477  0.00  0.00    +0.000 A 
ATOM     14  C   UNL     1      30.053  23.255  24.919  0.00  0.00    +0.000 A 
ATOM     15 CL   UNL     1      31.447  23.077  25.961  0.00  0.00    +0.000 Cl
ATOM     16  N   UNL     1      30.147  23.578  23.619  0.00  0.00    +0.000 NA
ATOM     17  C   UNL     1      29.028  23.695  22.888  0.00  0.00    +0.000 A 
ATOM     18  N   UNL     1      29.167  24.046  21.491  0.00  0.00    +0.000 NA
ATOM     19  N   UNL     1      27.820  23.496  23.424  0.00  0.00    +0.000 NA
ENDBRANCH  11  12
ENDBRANCH   7  11
TORSDOF 3
ENDMDL
MODEL 4
REMARK VINA RESULT:      -6.3     18.032     18.882
REMARK  Name = 
REMARK  3 active torsions:
REMARK  status: ('A' for Active; 'I' for Inactive)
REMARK    1  A    between atoms: C_5  and  C_6
REMARK    2  A    between atoms: C_10  and  O_11
REMARK    3  A    between atoms: O_11  and  C_12
REMARK                            x       y       z     vdW  Elec       q    Type
REMARK                         _______ _______ _______ _____ _____    ______ ____
ROOT
ATOM      1  C   UNL     1      27.068  23.525  29.751  0.00  0.00    +0.000 C 
ATOM      2  C   UNL     1      26.079  24.292  28.981  0.00  0.00    +0.000 A 
ATOM      3  C   UNL     1      25.367  25.309  29.543  0.00  0.00    +0.000 A 
ATOM      4  C   UNL     1      24.432  26.038  28.823  0.00  0.00    +0.000 A 
ATOM      5  C   UNL     1      24.185  25.756  27.495  0.00  0.00    +0.000 A 
ATOM      6  C   UNL     1      24.916  24.723  26.945  0.00  0.00    +0.000 A 
ATOM      7  C   UNL     1      25.850  23.987  27.643  0.00  0.00    +0.000 A 
ENDROOT
BRANCH   5   8
ATOM      8  C   UNL     1      23.178  26.547  26.734  0.00  0.00    +0.000 C 
ATOM      9  C   UNL     1      21.779  26.170  27.140  0.00  0.00    +0.000 C 
ATOM     10  C   UNL     1      23.417  26.521  25.265  0.00  0.00    +0.000 C 
ENDBRANCH   5   8
BRANCH   7  11
ATOM     11  O   UNL     1      26.545  22.962  27.018  0.00  0.00    +0.000 OA
BRANCH  11  12
ATOM     12  C   UNL     1      26.880  23.105  25.661  0.00  0.00    +0.000 A 
ATOM     13  C   UNL     1      28.162  23.459  25.276  0.00  0.00    +0.000 A 
ATOM     14  C   UNL     1      28.482  23.599  23.940  0.00  0.00    +0.000 A 
ATOM     15 CL   UNL     1      30.125  24.047  23.543  0.00  0.00    +0.000 Cl
ATOM     16  N   UNL     1      27.536  23.389  23.010  0.00  0.00    +0.000 NA
ATOM     17  C   UNL     1      26.297  23.047  23.399  0.00  0.00    +0.000 A 
ATOM     18  N   UNL     1      25.303  22.829  22.370  0.00  0.00    +0.000 NA
ATOM     19  N   UNL     1      25.984  22.911  24.691  0.00  0.00    +0.000 NA
ENDBRANCH  11  12
ENDBRANCH   7  11
TORSDOF 3
ENDMDL
MODEL 5
REMARK VINA RESULT:      -6.3     18.598     20.179
REMARK  Name = 
REMARK  3 active torsions:
REMARK  status: ('A' for Active; 'I' for Inactive)
REMARK    1  A    between atoms: C_5  and  C_6
REMARK    2  A    between atoms: C_10  and  O_11
REMARK    3  A    between atoms: O_11  and  C_12
REMARK                            x       y       z     vdW  Elec       q    Type
REMARK                         _______ _______ _______ _____ _____    ______ ____
ROOT
ATOM      1  C   UNL     1      26.873  22.945  28.209  0.00  0.00    +0.000 C 
ATOM      2  C   UNL     1      26.087  23.879  27.392  0.00  0.00    +0.000 A 
ATOM      3  C   UNL     1      25.334  24.864  27.956  0.00  0.00    +0.000 A 
ATOM      4  C   UNL     1      24.589  25.750  27.192  0.00  0.00    +0.000 A 
ATOM      5  C   UNL     1      24.583  25.664  25.814  0.00  0.00    +0.000 A 
ATOM      6  C   UNL     1      25.352  24.660  25.262  0.00  0.00    +0.000 A 
ATOM      7  C   UNL     1      26.099  23.770  26.005  0.00  0.00    +0.000 A 
ENDROOT
BRANCH   5   8
ATOM      8  C   UNL     1      23.778  26.621  25.006  0.00  0.00    +0.000 C 
ATOM      9  C   UNL     1      24.444  27.970  24.949  0.00  0.00    +0.000 C 
ATOM     10  C   UNL     1      22.348  26.663  25.418  0.00  0.00    +0.000 C 
ENDBRANCH   5   8
BRANCH   7  11
ATOM     11  O   UNL     1      26.847  22.786  25.375  0.00  0.00    +0.000 OA
BRANCH  11  12
ATOM     12  C   UNL     1      28.040  23.156  24.732  0.00  0.00    +0.000 A 
ATOM     13  C   UNL     1      29.234  23.234  25.429  0.00  0.00    +0.000 A 
ATOM     14  C   UNL     1      30.401  23.600  24.789  0.00  0.00    +0.000 A 
ATOM     15 CL   UNL     1      31.863  23.672  25.746  0.00  0.00    +0.000 Cl
ATOM     16  N   UNL     1      30.371  23.882  23.476  0.00  0.00    +0.000 NA
ATOM     17  C   UNL     1      29.207  23.802  22.813  0.00  0.00    +0.000 A 
ATOM     18  N   UNL     1      29.212  24.113  21.400  0.00  0.00    +0.000 NA
ATOM     19  N   UNL     1      28.075  23.449  23.430  0.00  0.00    +0.000 NA
ENDBRANCH  11  12
ENDBRANCH   7  11
TORSDOF 3
ENDMDL
MODEL 6
REMARK VINA RESULT:      -6.3     17.331     19.808
REMARK  Name = 
REMARK  3 active torsions:
REMARK  status: ('A' for Active; 'I' for Inactive)
REMARK    1  A    between atoms: C_5  and  C_6
REMARK    2  A    between atoms: C_10  and  O_11
REMARK    3  A    between atoms: O_11  and  C_12
REMARK                            x       y       z     vdW  Elec       q    Type
REMARK                         _______ _______ _______ _____ _____    ______ ____
ROOT
ATOM      1  C   UNL     1      31.189  22.440  27.683  0.00  0.00    +0.000 C 
ATOM      2  C   UNL     1      30.213  22.834  26.658  0.00  0.00    +0.000 A 
ATOM      3  C   UNL     1      30.227  22.290  25.409  0.00  0.00    +0.000 A 
ATOM      4  C   UNL     1      29.309  22.656  24.436  0.00  0.00    +0.000 A 
ATOM      5  C   UNL     1      28.335  23.597  24.701  0.00  0.00    +0.000 A 
ATOM      6  C   UNL     1      28.337  24.135  25.972  0.00  0.00    +0.000 A 
ATOM      7  C   UNL     1      29.240  23.785  26.952  0.00  0.00    +0.000 A 
ENDROOT
BRANCH   5   8
ATOM      8  C   UNL     1      27.355  23.980  23.647  0.00  0.00    +0.000 C 
ATOM      9  C   UNL     1      26.041  23.276  23.852  0.00  0.00    +0.000 C 
ATOM     10  C   UNL     1      27.911  23.851  22.271  0.00  0.00    +0.000 C 
ENDBRANCH   5   8
BRANCH   7  11
ATOM     11  O   UNL     1      29.177  24.372  28.207  0.00  0.00    +0.000 OA
BRANCH  11  12
ATOM     12  C   UNL     1      28.013  24.196  28.974  0.00  0.00    +0.000 A 
ATOM     13  C   UNL     1      27.628  22.940  29.410  0.00  0.00    +0.000 A 
ATOM     14  C   UNL     1      26.482  22.776  30.163  0.00  0.00    +0.000 A 
ATOM     15 CL   UNL     1      26.071  21.155  30.672  0.00  0.00    +0.000 Cl
ATOM     16  N   UNL     1      25.738  23.851  30.472  0.00  0.00    +0.000 NA
ATOM     17  C   UNL     1      26.124  25.063  30.042  0.00  0.00    +0.000 A 
ATOM     18  N   UNL     1      25.298  26.198  30.393  0.00  0.00    +0.000 NA
ATOM     19  N   UNL     1      27.232  25.225  29.313  0.00  0.00    +0.000 NA
ENDBRANCH  11  12
ENDBRANCH   7  11
TORSDOF 3
ENDMDL
MODEL 7
REMARK VINA RESULT:      -6.2     17.497     19.650
REMARK  Name = 
REMARK  3 active torsions:
REMARK  status: ('A' for Active; 'I' for Inactive)
REMARK    1  A    between atoms: C_5  and  C_6
REMARK    2  A    between atoms: C_10  and  O_11
REMARK    3  A    between atoms: O_11  and  C_12
REMARK                            x       y       z     vdW  Elec       q    Type
REMARK                         _______ _______ _______ _____ _____    ______ ____
ROOT
ATOM      1  C   UNL     1      24.702  25.701  25.578  0.00  0.00    +0.000 C 
ATOM      2  C   UNL     1      25.366  24.857  26.580  0.00  0.00    +0.000 A 
ATOM      3  C   UNL     1      25.280  25.127  27.913  0.00  0.00    +0.000 A 
ATOM      4  C   UNL     1      25.904  24.335  28.866  0.00  0.00    +0.000 A 
ATOM      5  C   UNL     1      26.644  23.231  28.494  0.00  0.00    +0.000 A 
ATOM      6  C   UNL     1      26.717  22.974  27.140  0.00  0.00    +0.000 A 
ATOM      7  C   UNL     1      26.105  23.749  26.178  0.00  0.00    +0.000 A 
ENDROOT
BRANCH   5   8
ATOM      8  C   UNL     1      27.307  22.390  29.528  0.00  0.00    +0.000 C 
ATOM      9  C   UNL     1      26.290  21.742  30.429  0.00  0.00    +0.000 C 
ATOM     10  C   UNL     1      28.391  23.113  30.250  0.00  0.00    +0.000 C 
ENDBRANCH   5   8
BRANCH   7  11
ATOM     11  O   UNL     1      26.227  23.425  24.835  0.00  0.00    +0.000 OA
BRANCH  11  12
ATOM     12  C   UNL     1      27.481  23.573  24.218  0.00  0.00    +0.000 A 
ATOM     13  C   UNL     1      27.628  24.340  23.075  0.00  0.00    +0.000 A 
ATOM     14  C   UNL     1      28.865  24.479  22.475  0.00  0.00    +0.000 A 
ATOM     15 CL   UNL     1      28.960  25.468  21.036  0.00  0.00    +0.000 Cl
ATOM     16  N   UNL     1      29.930  23.861  23.011  0.00  0.00    +0.000 NA
ATOM     17  C   UNL     1      29.771  23.121  24.119  0.00  0.00    +0.000 A 
ATOM     18  N   UNL     1      30.941  22.469  24.668  0.00  0.00    +0.000 NA
ATOM     19  N   UNL     1      28.577  22.983  24.702  0.00  0.00    +0.000 NA
ENDBRANCH  11  12
ENDBRANCH   7  11
TORSDOF 3
ENDMDL
MODEL 8
REMARK VINA RESULT:      -6.2     18.997     21.132
REMARK  Name = 
REMARK  3 active torsions:
REMARK  status: ('A' for Active; 'I' for Inactive)
REMARK    1  A    between atoms: C_5  and  C_6
REMARK    2  A    between atoms: C_10  and  O_11
REMARK    3  A    between atoms: O_11  and  C_12
REMARK                            x       y       z     vdW  Elec       q    Type
REMARK                         _______ _______ _______ _____ _____    ______ ____
ROOT
ATOM      1  C   UNL     1      32.706  24.167  24.870  0.00  0.00    +0.000 C 
ATOM      2  C   UNL     1      31.827  23.796  25.987  0.00  0.00    +0.000 A 
ATOM      3  C   UNL     1      32.037  24.265  27.249  0.00  0.00    +0.000 A 
ATOM      4  C   UNL     1      31.213  23.921  28.309  0.00  0.00    +0.000 A 
ATOM      5  C   UNL     1      30.135  23.078  28.123  0.00  0.00    +0.000 A 
ATOM      6  C   UNL     1      29.939  22.615  26.838  0.00  0.00    +0.000 A 
ATOM      7  C   UNL     1      30.747  22.946  25.771  0.00  0.00    +0.000 A 
ENDROOT
BRANCH   5   8
ATOM      8  C   UNL     1      29.258  22.717  29.270  0.00  0.00    +0.000 C 
ATOM      9  C   UNL     1      27.807  22.909  28.920  0.00  0.00    +0.000 C 
ATOM     10  C   UNL     1      29.673  23.374  30.541  0.00  0.00    +0.000 C 
ENDBRANCH   5   8
BRANCH   7  11
ATOM     11  O   UNL     1      30.484  22.438  24.508  0.00  0.00    +0.000 OA
BRANCH  11  12
ATOM     12  C   UNL     1      29.544  23.098  23.699  0.00  0.00    +0.000 A 
ATOM     13  C   UNL     1      28.191  23.044  23.987  0.00  0.00    +0.000 A 
ATOM     14  C   UNL     1      27.274  23.696  23.186  0.00  0.00    +0.000 A 
ATOM     15 CL   UNL     1      25.585  23.575  23.624  0.00  0.00    +0.000 Cl
ATOM     16  N   UNL     1      27.706  24.387  22.118  0.00  0.00    +0.000 NA
ATOM     17  C   UNL     1      29.020  24.430  21.851  0.00  0.00    +0.000 A 
ATOM     18  N   UNL     1      29.450  25.183  20.693  0.00  0.00    +0.000 NA
ATOM     19  N   UNL     1      29.911  23.800  22.624  0.00  0.00    +0.000 NA
ENDBRANCH  11  12
ENDBRANCH   7  11
TORSDOF 3
ENDMDL
MODEL 9
REMARK VINA RESULT:      -6.1     20.036     22.591
REMARK  Name = 
REMARK  3 active torsions:
REMARK  status: ('A' for Active; 'I' for Inactive)
REMARK    1  A    between atoms: C_5  and  C_6
REMARK    2  A    between atoms: C_10  and  O_11
REMARK    3  A    between atoms: O_11  and  C_12
REMARK                            x       y       z     vdW  Elec       q    Type
REMARK                         _______ _______ _______ _____ _____    ______ ____
ROOT
ATOM      1  C   UNL     1      33.712  -1.139  33.595  0.00  0.00    +0.000 C 
ATOM      2  C   UNL     1      33.738   0.326  33.700  0.00  0.00    +0.000 A 
ATOM      3  C   UNL     1      33.832   1.122  32.598  0.00  0.00    +0.000 A 
ATOM      4  C   UNL     1      33.857   2.505  32.689  0.00  0.00    +0.000 A 
ATOM      5  C   UNL     1      33.786   3.135  33.915  0.00  0.00    +0.000 A 
ATOM      6  C   UNL     1      33.690   2.312  35.019  0.00  0.00    +0.000 A 
ATOM      7  C   UNL     1      33.664   0.936  34.949  0.00  0.00    +0.000 A 
ENDROOT
BRANCH   5   8
ATOM      8  C   UNL     1      33.813   4.622  33.998  0.00  0.00    +0.000 C 
ATOM      9  C   UNL     1      34.613   5.080  35.188  0.00  0.00    +0.000 C 
ATOM     10  C   UNL     1      32.456   5.228  33.903  0.00  0.00    +0.000 C 
ENDBRANCH   5   8
BRANCH   7  11
ATOM     11  O   UNL     1      33.567   0.176  36.106  0.00  0.00    +0.000 OA
BRANCH  11  12
ATOM     12  C   UNL     1      34.736  -0.087  36.839  0.00  0.00    +0.000 A 
ATOM     13  C   UNL     1      35.296   0.877  37.660  0.00  0.00    +0.000 A 
ATOM     14  C   UNL     1      36.447   0.610  38.376  0.00  0.00    +0.000 A 
ATOM     15 CL   UNL     1      37.085   1.884  39.390  0.00  0.00    +0.000 Cl
ATOM     16  N   UNL     1      37.023  -0.599  38.269  0.00  0.00    +0.000 NA
ATOM     17  C   UNL     1      36.469  -1.523  37.469  0.00  0.00    +0.000 A 
ATOM     18  N   UNL     1      37.117  -2.813  37.378  0.00  0.00    +0.000 NA
ATOM     19  N   UNL     1      35.356  -1.268  36.774  0.00  0.00    +0.000 NA
ENDBRANCH  11  12
ENDBRANCH   7  11
TORSDOF 3
ENDMDL
MODEL 10
REMARK VINA RESULT:      -6.1     18.381     20.000
REMARK  Name = 
REMARK  3 active torsions:
REMARK  status: ('A' for Active; 'I' for Inactive)
REMARK    1  A    between atoms: C_5  and  C_6
REMARK    2  A    between atoms: C_10  and  O_11
REMARK    3  A    between atoms: O_11  and  C_12
REMARK                            x       y       z     vdW  Elec       q    Type
REMARK                         _______ _______ _______ _____ _____    ______ ____
ROOT
ATOM      1  C   UNL     1      24.872  25.352  27.353  0.00  0.00    +0.000 C 
ATOM      2  C   UNL     1      26.113  24.615  27.627  0.00  0.00    +0.000 A 
ATOM      3  C   UNL     1      26.240  23.808  28.718  0.00  0.00    +0.000 A 
ATOM      4  C   UNL     1      27.407  23.108  28.984  0.00  0.00    +0.000 A 
ATOM      5  C   UNL     1      28.498  23.205  28.143  0.00  0.00    +0.000 A 
ATOM      6  C   UNL     1      28.349  24.026  27.044  0.00  0.00    +0.000 A 
ATOM      7  C   UNL     1      27.197  24.730  26.763  0.00  0.00    +0.000 A 
ENDROOT
BRANCH   5   8
ATOM      8  C   UNL     1      29.745  22.448  28.441  0.00  0.00    +0.000 C 
ATOM      9  C   UNL     1      30.486  23.064  29.597  0.00  0.00    +0.000 C 
ATOM     10  C   UNL     1      30.582  22.219  27.231  0.00  0.00    +0.000 C 
ENDBRANCH   5   8
BRANCH   7  11
ATOM     11  O   UNL     1      27.125  25.536  25.636  0.00  0.00    +0.000 OA
BRANCH  11  12
ATOM     12  C   UNL     1      27.113  24.926  24.371  0.00  0.00    +0.000 A 
ATOM     13  C   UNL     1      28.111  25.181  23.446  0.00  0.00    +0.000 A 
ATOM     14  C   UNL     1      28.091  24.577  22.204  0.00  0.00    +0.000 A 
ATOM     15 CL   UNL     1      29.392  24.955  21.098  0.00  0.00    +0.000 Cl
ATOM     16  N   UNL     1      27.091  23.735  21.897  0.00  0.00    +0.000 NA
ATOM     17  C   UNL     1      26.130  23.498  22.804  0.00  0.00    +0.000 A 
ATOM     18  N   UNL     1      25.068  22.586  22.439  0.00  0.00    +0.000 NA
ATOM     19  N   UNL     1      26.146  24.081  24.007  0.00  0.00    +0.000 NA
ENDBRANCH  11  12
ENDBRANCH   7  11
TORSDOF 3
ENDMDL
