MODEL 1
REMARK VINA RESULT:      -6.7      0.000      0.000
REMARK  Name = 
REMARK  7 active torsions:
REMARK  status: ('A' for Active; 'I' for Inactive)
REMARK    1  A    between atoms: C_2  and  C_22
REMARK    2  A    between atoms: N_3  and  C_4
REMARK    3  A    between atoms: C_4  and  C_5
REMARK    4  A    between atoms: C_5  and  C_6
REMARK    5  A    between atoms: C_6  and  C_7
REMARK    6  A    between atoms: C_7  and  N_8
REMARK    7  A    between atoms: C_25  and  C_26
REMARK                            x       y       z     vdW  Elec       q    Type
REMARK                         _______ _______ _______ _____ _____    ______ ____
ROOT
ATOM      1  C   UNL     1      43.250  -2.427  10.926  0.00  0.00    +0.000 C 
ENDROOT
BRANCH   1   2
ATOM      2  C   UNL     1      42.422  -3.601  11.383  0.00  0.00    +0.000 C 
BRANCH   2   5
ATOM      3  O   UNL     1      39.780  -2.894  11.046  0.00  0.00    +0.000 OA
ATOM      4  C   UNL     1      40.204  -2.874  12.223  0.00  0.00    +0.000 C 
ATOM      5  N   UNL     1      41.555  -3.224  12.483  0.00  0.00    +0.000 NA
BRANCH   4   6
ATOM      6  C   UNL     1      39.309  -2.491  13.309  0.00  0.00    +0.000 A 
ATOM      7  C   UNL     1      37.970  -2.787  13.248  0.00  0.00    +0.000 A 
ATOM      8  C   UNL     1      37.120  -2.432  14.261  0.00  0.00    +0.000 A 
ATOM      9  C   UNL     1      37.580  -1.764  15.385  0.00  0.00    +0.000 A 
ATOM     10  C   UNL     1      38.927  -1.483  15.414  0.00  0.00    +0.000 A 
ATOM     11  C   UNL     1      39.792  -1.830  14.409  0.00  0.00    +0.000 A 
BRANCH   9  12
ATOM     12  C   UNL     1      36.683  -1.382  16.471  0.00  0.00    +0.000 A 
ATOM     13  C   UNL     1      35.316  -1.513  16.393  0.00  0.00    +0.000 A 
ATOM     14  C   UNL     1      34.525  -1.130  17.462  0.00  0.00    +0.000 A 
ATOM     15  C   UNL     1      35.075  -0.618  18.609  0.00  0.00    +0.000 A 
ATOM     16  C   UNL     1      36.440  -0.481  18.701  0.00  0.00    +0.000 A 
ATOM     17  C   UNL     1      37.224  -0.867  17.626  0.00  0.00    +0.000 A 
ENDBRANCH   9  12
ENDBRANCH   4   6
ENDBRANCH   2   5
ENDBRANCH   1   2
BRANCH   1  18
ATOM     18  C   UNL     1      43.190  -1.393  12.057  0.00  0.00    +0.000 C 
BRANCH  18  19
ATOM     19  C   UNL     1      42.689  -0.072  11.504  0.00  0.00    +0.000 C 
BRANCH  19  20
ATOM     20  N   UNL     1      41.465   0.343  12.175  0.00  0.00    +0.000 NA
ATOM     21  C   UNL     1      41.714   1.217  13.276  0.00  0.00    +0.000 C 
ATOM     22  C   UNL     1      40.548   2.072  13.622  0.00  0.00    +0.000 C 
ATOM     23  C   UNL     1      39.239   1.568  13.138  0.00  0.00    +0.000 C 
ATOM     24  C   UNL     1      39.218   0.973  11.958  0.00  0.00    +0.000 C 
ATOM     25  C   UNL     1      37.994   0.425  11.349  0.00  0.00    +0.000 C 
ATOM     26  C   UNL     1      36.756   0.573  12.140  0.00  0.00    +0.000 C 
ATOM     27  C   UNL     1      36.845   1.236  13.430  0.00  0.00    +0.000 A 
ATOM     28  C   UNL     1      35.696   1.380  14.176  0.00  0.00    +0.000 A 
ATOM     29  C   UNL     1      35.709   2.000  15.410  0.00  0.00    +0.000 A 
ATOM     30  C   UNL     1      36.905   2.496  15.923  0.00  0.00    +0.000 A 
ATOM     31  C   UNL     1      38.036   2.339  15.159  0.00  0.00    +0.000 A 
ATOM     32  C   UNL     1      38.012   1.719  13.930  0.00  0.00    +0.000 A 
ATOM     33  C   UNL     1      40.496   0.860  11.227  0.00  0.00    +0.000 C 
ENDBRANCH  19  20
ENDBRANCH  18  19
ENDBRANCH   1  18
TORSDOF 7
ENDMDL
MODEL 2
REMARK VINA RESULT:      -5.9      1.843      3.317
REMARK  Name = 
REMARK  7 active torsions:
REMARK  status: ('A' for Active; 'I' for Inactive)
REMARK    1  A    between atoms: C_2  and  C_22
REMARK    2  A    between atoms: N_3  and  C_4
REMARK    3  A    between atoms: C_4  and  C_5
REMARK    4  A    between atoms: C_5  and  C_6
REMARK    5  A    between atoms: C_6  and  C_7
REMARK    6  A    between atoms: C_7  and  N_8
REMARK    7  A    between atoms: C_25  and  C_26
REMARK                            x       y       z     vdW  Elec       q    Type
REMARK                         _______ _______ _______ _____ _____    ______ ____
ROOT
ATOM      1  C   UNL     1      40.080   0.807   8.558  0.00  0.00    +0.000 C 
ENDROOT
BRANCH   1   2
ATOM      2  C   UNL     1      40.587  -0.481   9.154  0.00  0.00    +0.000 C 
BRANCH   2   5
ATOM      3  O   UNL     1      40.109  -2.876  10.430  0.00  0.00    +0.000 OA
ATOM      4  C   UNL     1      40.001  -1.851  11.138  0.00  0.00    +0.000 C 
ATOM      5  N   UNL     1      40.231  -0.576  10.556  0.00  0.00    +0.000 NA
BRANCH   4   6
ATOM      6  C   UNL     1      39.642  -1.976  12.546  0.00  0.00    +0.000 A 
ATOM      7  C   UNL     1      40.252  -1.194  13.495  0.00  0.00    +0.000 A 
ATOM      8  C   UNL     1      39.924  -1.303  14.819  0.00  0.00    +0.000 A 
ATOM      9  C   UNL     1      38.964  -2.205  15.251  0.00  0.00    +0.000 A 
ATOM     10  C   UNL     1      38.372  -2.973  14.275  0.00  0.00    +0.000 A 
ATOM     11  C   UNL     1      38.688  -2.878  12.944  0.00  0.00    +0.000 A 
BRANCH   9  12
ATOM     12  C   UNL     1      38.606  -2.329  16.661  0.00  0.00    +0.000 A 
ATOM     13  C   UNL     1      39.032  -3.370  17.451  0.00  0.00    +0.000 A 
ATOM     14  C   UNL     1      38.653  -3.424  18.781  0.00  0.00    +0.000 A 
ATOM     15  C   UNL     1      37.855  -2.456  19.336  0.00  0.00    +0.000 A 
ATOM     16  C   UNL     1      37.422  -1.409  18.557  0.00  0.00    +0.000 A 
ATOM     17  C   UNL     1      37.807  -1.363  17.227  0.00  0.00    +0.000 A 
ENDBRANCH   9  12
ENDBRANCH   4   6
ENDBRANCH   2   5
ENDBRANCH   1   2
BRANCH   1  18
ATOM     18  C   UNL     1      38.618   0.938   8.999  0.00  0.00    +0.000 C 
BRANCH  18  19
ATOM     19  C   UNL     1      38.419   2.275   9.689  0.00  0.00    +0.000 C 
BRANCH  19  20
ATOM     20  N   UNL     1      37.909   2.094  11.041  0.00  0.00    +0.000 NA
ATOM     21  C   UNL     1      37.084   0.936  11.164  0.00  0.00    +0.000 C 
ATOM     22  C   UNL     1      37.006   0.414  12.553  0.00  0.00    +0.000 C 
ATOM     23  C   UNL     1      37.359   1.397  13.609  0.00  0.00    +0.000 C 
ATOM     24  C   UNL     1      38.332   2.250  13.340  0.00  0.00    +0.000 C 
ATOM     25  C   UNL     1      38.790   3.278  14.289  0.00  0.00    +0.000 C 
ATOM     26  C   UNL     1      38.093   3.315  15.591  0.00  0.00    +0.000 C 
ATOM     27  C   UNL     1      37.031   2.351  15.824  0.00  0.00    +0.000 A 
ATOM     28  C   UNL     1      36.374   2.376  17.035  0.00  0.00    +0.000 A 
ATOM     29  C   UNL     1      35.357   1.489  17.322  0.00  0.00    +0.000 A 
ATOM     30  C   UNL     1      34.976   0.541  16.376  0.00  0.00    +0.000 A 
ATOM     31  C   UNL     1      35.647   0.537  15.177  0.00  0.00    +0.000 A 
ATOM     32  C   UNL     1      36.661   1.427  14.900  0.00  0.00    +0.000 A 
ATOM     33  C   UNL     1      38.980   2.153  12.018  0.00  0.00    +0.000 C 
ENDBRANCH  19  20
ENDBRANCH  18  19
ENDBRANCH   1  18
TORSDOF 7
ENDMDL
MODEL 3
REMARK VINA RESULT:      -5.9      1.630      4.170
REMARK  Name = 
REMARK  7 active torsions:
REMARK  status: ('A' for Active; 'I' for Inactive)
REMARK    1  A    between atoms: C_2  and  C_22
REMARK    2  A    between atoms: N_3  and  C_4
REMARK    3  A    between atoms: C_4  and  C_5
REMARK    4  A    between atoms: C_5  and  C_6
REMARK    5  A    between atoms: C_6  and  C_7
REMARK    6  A    between atoms: C_7  and  N_8
REMARK    7  A    between atoms: C_25  and  C_26
REMARK                            x       y       z     vdW  Elec       q    Type
REMARK                         _______ _______ _______ _____ _____    ______ ____
ROOT
ATOM      1  C   UNL     1      41.513   1.555   9.613  0.00  0.00    +0.000 C 
ENDROOT
BRANCH   1   2
ATOM      2  C   UNL     1      40.355   2.437  10.005  0.00  0.00    +0.000 C 
BRANCH   2   5
ATOM      3  O   UNL     1      37.987   1.069  10.344  0.00  0.00    +0.000 OA
ATOM      4  C   UNL     1      38.606   1.354  11.392  0.00  0.00    +0.000 C 
ATOM      5  N   UNL     1      39.836   2.059  11.305  0.00  0.00    +0.000 NA
BRANCH   4   6
ATOM      6  C   UNL     1      38.061   0.961  12.686  0.00  0.00    +0.000 A 
ATOM      7  C   UNL     1      36.758   0.542  12.797  0.00  0.00    +0.000 A 
ATOM      8  C   UNL     1      36.234   0.172  14.007  0.00  0.00    +0.000 A 
ATOM      9  C   UNL     1      36.999   0.204  15.162  0.00  0.00    +0.000 A 
ATOM     10  C   UNL     1      38.300   0.628  15.016  0.00  0.00    +0.000 A 
ATOM     11  C   UNL     1      38.841   1.003  13.813  0.00  0.00    +0.000 A 
BRANCH   9  12
ATOM     12  C   UNL     1      36.451  -0.190  16.457  0.00  0.00    +0.000 A 
ATOM     13  C   UNL     1      37.227  -0.342  17.582  0.00  0.00    +0.000 A 
ATOM     14  C   UNL     1      36.639  -0.719  18.777  0.00  0.00    +0.000 A 
ATOM     15  C   UNL     1      35.290  -0.947  18.868  0.00  0.00    +0.000 A 
ATOM     16  C   UNL     1      34.502  -0.798  17.752  0.00  0.00    +0.000 A 
ATOM     17  C   UNL     1      35.099  -0.420  16.560  0.00  0.00    +0.000 A 
ENDBRANCH   9  12
ENDBRANCH   4   6
ENDBRANCH   2   5
ENDBRANCH   1   2
BRANCH   1  18
ATOM     18  C   UNL     1      42.169   1.100  10.922  0.00  0.00    +0.000 C 
BRANCH  18  19
ATOM     19  C   UNL     1      42.322  -0.410  10.910  0.00  0.00    +0.000 C 
BRANCH  19  20
ATOM     20  N   UNL     1      41.310  -1.042  11.745  0.00  0.00    +0.000 NA
ATOM     21  C   UNL     1      40.219  -1.561  10.984  0.00  0.00    +0.000 C 
ATOM     22  C   UNL     1      39.483  -2.649  11.680  0.00  0.00    +0.000 C 
ATOM     23  C   UNL     1      39.662  -2.680  13.153  0.00  0.00    +0.000 C 
ATOM     24  C   UNL     1      40.856  -2.366  13.624  0.00  0.00    +0.000 C 
ATOM     25  C   UNL     1      41.182  -2.354  15.060  0.00  0.00    +0.000 C 
ATOM     26  C   UNL     1      40.082  -2.719  15.977  0.00  0.00    +0.000 C 
ATOM     27  C   UNL     1      38.793  -3.054  15.396  0.00  0.00    +0.000 A 
ATOM     28  C   UNL     1      37.760  -3.396  16.241  0.00  0.00    +0.000 A 
ATOM     29  C   UNL     1      36.510  -3.726  15.756  0.00  0.00    +0.000 A 
ATOM     30  C   UNL     1      36.274  -3.717  14.383  0.00  0.00    +0.000 A 
ATOM     31  C   UNL     1      37.321  -3.372  13.564  0.00  0.00    +0.000 A 
ATOM     32  C   UNL     1      38.564  -3.044  14.057  0.00  0.00    +0.000 A 
ATOM     33  C   UNL     1      41.904  -2.009  12.648  0.00  0.00    +0.000 C 
ENDBRANCH  19  20
ENDBRANCH  18  19
ENDBRANCH   1  18
TORSDOF 7
ENDMDL
MODEL 4
REMARK VINA RESULT:      -5.8      5.682      8.729
REMARK  Name = 
REMARK  7 active torsions:
REMARK  status: ('A' for Active; 'I' for Inactive)
REMARK    1  A    between atoms: C_2  and  C_22
REMARK    2  A    between atoms: N_3  and  C_4
REMARK    3  A    between atoms: C_4  and  C_5
REMARK    4  A    between atoms: C_5  and  C_6
REMARK    5  A    between atoms: C_6  and  C_7
REMARK    6  A    between atoms: C_7  and  N_8
REMARK    7  A    between atoms: C_25  and  C_26
REMARK                            x       y       z     vdW  Elec       q    Type
REMARK                         _______ _______ _______ _____ _____    ______ ____
ROOT
ATOM      1  C   UNL     1      37.675   5.953  13.426  0.00  0.00    +0.000 C 
ENDROOT
BRANCH   1   2
ATOM      2  C   UNL     1      37.075   6.210  14.785  0.00  0.00    +0.000 C 
BRANCH   2   5
ATOM      3  O   UNL     1      37.877   4.567  16.846  0.00  0.00    +0.000 OA
ATOM      4  C   UNL     1      38.456   5.673  16.775  0.00  0.00    +0.000 C 
ATOM      5  N   UNL     1      38.101   6.579  15.741  0.00  0.00    +0.000 NA
BRANCH   4   6
ATOM      6  C   UNL     1      39.484   6.018  17.750  0.00  0.00    +0.000 A 
ATOM      7  C   UNL     1      40.791   6.181  17.359  0.00  0.00    +0.000 A 
ATOM      8  C   UNL     1      41.764   6.504  18.265  0.00  0.00    +0.000 A 
ATOM      9  C   UNL     1      41.469   6.679  19.608  0.00  0.00    +0.000 A 
ATOM     10  C   UNL     1      40.151   6.509  19.966  0.00  0.00    +0.000 A 
ATOM     11  C   UNL     1      39.162   6.185  19.072  0.00  0.00    +0.000 A 
BRANCH   9  12
ATOM     12  C   UNL     1      42.500   7.025  20.582  0.00  0.00    +0.000 A 
ATOM     13  C   UNL     1      42.908   8.318  20.811  0.00  0.00    +0.000 A 
ATOM     14  C   UNL     1      43.892   8.573  21.750  0.00  0.00    +0.000 A 
ATOM     15  C   UNL     1      44.477   7.558  22.465  0.00  0.00    +0.000 A 
ATOM     16  C   UNL     1      44.078   6.261  22.246  0.00  0.00    +0.000 A 
ATOM     17  C   UNL     1      43.092   6.016  21.304  0.00  0.00    +0.000 A 
ENDBRANCH   9  12
ENDBRANCH   4   6
ENDBRANCH   2   5
ENDBRANCH   1   2
BRANCH   1  18
ATOM     18  C   UNL     1      37.666   4.432  13.233  0.00  0.00    +0.000 C 
BRANCH  18  19
ATOM     19  C   UNL     1      36.291   3.890  13.576  0.00  0.00    +0.000 C 
BRANCH  19  20
ATOM     20  N   UNL     1      36.380   2.843  14.584  0.00  0.00    +0.000 NA
ATOM     21  C   UNL     1      35.368   2.958  15.584  0.00  0.00    +0.000 C 
ATOM     22  C   UNL     1      35.075   1.675  16.274  0.00  0.00    +0.000 C 
ATOM     23  C   UNL     1      36.152   0.658  16.182  0.00  0.00    +0.000 C 
ATOM     24  C   UNL     1      36.825   0.589  15.046  0.00  0.00    +0.000 C 
ATOM     25  C   UNL     1      37.918  -0.369  14.810  0.00  0.00    +0.000 C 
ATOM     26  C   UNL     1      38.238  -1.275  15.932  0.00  0.00    +0.000 C 
ATOM     27  C   UNL     1      37.462  -1.149  17.154  0.00  0.00    +0.000 A 
ATOM     28  C   UNL     1      37.752  -1.990  18.206  0.00  0.00    +0.000 A 
ATOM     29  C   UNL     1      37.054  -1.925  19.395  0.00  0.00    +0.000 A 
ATOM     30  C   UNL     1      36.030  -0.993  19.548  0.00  0.00    +0.000 A 
ATOM     31  C   UNL     1      35.762  -0.167  18.484  0.00  0.00    +0.000 A 
ATOM     32  C   UNL     1      36.464  -0.240  17.301  0.00  0.00    +0.000 A 
ATOM     33  C   UNL     1      36.450   1.529  13.973  0.00  0.00    +0.000 C 
ENDBRANCH  19  20
ENDBRANCH  18  19
ENDBRANCH   1  18
TORSDOF 7
ENDMDL
MODEL 5
REMARK VINA RESULT:      -5.7      9.151     11.496
REMARK  Name = 
REMARK  7 active torsions:
REMARK  status: ('A' for Active; 'I' for Inactive)
REMARK    1  A    between atoms: C_2  and  C_22
REMARK    2  A    between atoms: N_3  and  C_4
REMARK    3  A    between atoms: C_4  and  C_5
REMARK    4  A    between atoms: C_5  and  C_6
REMARK    5  A    between atoms: C_6  and  C_7
REMARK    6  A    between atoms: C_7  and  N_8
REMARK    7  A    between atoms: C_25  and  C_26
REMARK                            x       y       z     vdW  Elec       q    Type
REMARK                         _______ _______ _______ _____ _____    ______ ____
ROOT
ATOM      1  C   UNL     1      46.904   9.743  21.377  0.00  0.00    +0.000 C 
ENDROOT
BRANCH   1   2
ATOM      2  C   UNL     1      46.453   8.332  21.655  0.00  0.00    +0.000 C 
BRANCH   2   5
ATOM      3  O   UNL     1      44.026   7.291  22.443  0.00  0.00    +0.000 OA
ATOM      4  C   UNL     1      44.199   7.397  21.209  0.00  0.00    +0.000 C 
ATOM      5  N   UNL     1      45.423   7.925  20.720  0.00  0.00    +0.000 NA
BRANCH   4   6
ATOM      6  C   UNL     1      43.145   6.980  20.291  0.00  0.00    +0.000 A 
ATOM      7  C   UNL     1      41.911   6.611  20.766  0.00  0.00    +0.000 A 
ATOM      8  C   UNL     1      40.914   6.216  19.914  0.00  0.00    +0.000 A 
ATOM      9  C   UNL     1      41.113   6.177  18.543  0.00  0.00    +0.000 A 
ATOM     10  C   UNL     1      42.361   6.554  18.101  0.00  0.00    +0.000 A 
ATOM     11  C   UNL     1      43.371   6.951  18.939  0.00  0.00    +0.000 A 
BRANCH   9  12
ATOM     12  C   UNL     1      40.057   5.760  17.626  0.00  0.00    +0.000 A 
ATOM     13  C   UNL     1      38.943   5.066  18.036  0.00  0.00    +0.000 A 
ATOM     14  C   UNL     1      37.980   4.701  17.111  0.00  0.00    +0.000 A 
ATOM     15  C   UNL     1      38.111   5.017  15.782  0.00  0.00    +0.000 A 
ATOM     16  C   UNL     1      39.220   5.709  15.359  0.00  0.00    +0.000 A 
ATOM     17  C   UNL     1      40.178   6.071  16.292  0.00  0.00    +0.000 A 
ENDBRANCH   9  12
ENDBRANCH   4   6
ENDBRANCH   2   5
ENDBRANCH   1   2
BRANCH   1  18
ATOM     18  C   UNL     1      46.075  10.231  20.183  0.00  0.00    +0.000 C 
BRANCH  18  19
ATOM     19  C   UNL     1      45.054  11.247  20.661  0.00  0.00    +0.000 C 
BRANCH  19  20
ATOM     20  N   UNL     1      43.698  10.784  20.404  0.00  0.00    +0.000 NA
ATOM     21  C   UNL     1      42.891  10.773  21.581  0.00  0.00    +0.000 C 
ATOM     22  C   UNL     1      41.434  10.850  21.296  0.00  0.00    +0.000 C 
ATOM     23  C   UNL     1      41.046  10.444  19.922  0.00  0.00    +0.000 C 
ATOM     24  C   UNL     1      41.868  10.768  18.940  0.00  0.00    +0.000 C 
ATOM     25  C   UNL     1      41.615  10.432  17.529  0.00  0.00    +0.000 C 
ATOM     26  C   UNL     1      40.364   9.696  17.253  0.00  0.00    +0.000 C 
ATOM     27  C   UNL     1      39.503   9.369  18.376  0.00  0.00    +0.000 A 
ATOM     28  C   UNL     1      38.333   8.684  18.130  0.00  0.00    +0.000 A 
ATOM     29  C   UNL     1      37.469   8.342  19.151  0.00  0.00    +0.000 A 
ATOM     30  C   UNL     1      37.773   8.693  20.464  0.00  0.00    +0.000 A 
ATOM     31  C   UNL     1      38.945   9.376  20.681  0.00  0.00    +0.000 A 
ATOM     32  C   UNL     1      39.801   9.713  19.656  0.00  0.00    +0.000 A 
ATOM     33  C   UNL     1      43.100  11.500  19.293  0.00  0.00    +0.000 C 
ENDBRANCH  19  20
ENDBRANCH  18  19
ENDBRANCH   1  18
TORSDOF 7
ENDMDL
MODEL 6
REMARK VINA RESULT:      -5.7      9.289     11.874
REMARK  Name = 
REMARK  7 active torsions:
REMARK  status: ('A' for Active; 'I' for Inactive)
REMARK    1  A    between atoms: C_2  and  C_22
REMARK    2  A    between atoms: N_3  and  C_4
REMARK    3  A    between atoms: C_4  and  C_5
REMARK    4  A    between atoms: C_5  and  C_6
REMARK    5  A    between atoms: C_6  and  C_7
REMARK    6  A    between atoms: C_7  and  N_8
REMARK    7  A    between atoms: C_25  and  C_26
REMARK                            x       y       z     vdW  Elec       q    Type
REMARK                         _______ _______ _______ _____ _____    ______ ____
ROOT
ATOM      1  C   UNL     1      47.933  10.487  18.449  0.00  0.00    +0.000 C 
ENDROOT
BRANCH   1   2
ATOM      2  C   UNL     1      47.311  10.753  19.796  0.00  0.00    +0.000 C 
BRANCH   2   5
ATOM      3  O   UNL     1      45.224  12.286  18.853  0.00  0.00    +0.000 OA
ATOM      4  C   UNL     1      44.912  11.167  19.315  0.00  0.00    +0.000 C 
ATOM      5  N   UNL     1      45.929  10.315  19.822  0.00  0.00    +0.000 NA
BRANCH   4   6
ATOM      6  C   UNL     1      43.514  10.752  19.328  0.00  0.00    +0.000 A 
ATOM      7  C   UNL     1      42.844  10.517  18.153  0.00  0.00    +0.000 A 
ATOM      8  C   UNL     1      41.532  10.128  18.152  0.00  0.00    +0.000 A 
ATOM      9  C   UNL     1      40.832   9.956  19.336  0.00  0.00    +0.000 A 
ATOM     10  C   UNL     1      41.533  10.199  20.495  0.00  0.00    +0.000 A 
ATOM     11  C   UNL     1      42.847  10.590  20.515  0.00  0.00    +0.000 A 
BRANCH   9  12
ATOM     12  C   UNL     1      39.432   9.540  19.347  0.00  0.00    +0.000 A 
ATOM     13  C   UNL     1      38.757   9.220  20.501  0.00  0.00    +0.000 A 
ATOM     14  C   UNL     1      37.430   8.833  20.437  0.00  0.00    +0.000 A 
ATOM     15  C   UNL     1      36.765   8.759  19.239  0.00  0.00    +0.000 A 
ATOM     16  C   UNL     1      37.428   9.076  18.078  0.00  0.00    +0.000 A 
ATOM     17  C   UNL     1      38.757   9.463  18.152  0.00  0.00    +0.000 A 
ENDBRANCH   9  12
ENDBRANCH   4   6
ENDBRANCH   2   5
ENDBRANCH   1   2
BRANCH   1  18
ATOM     18  C   UNL     1      47.645   9.016  18.126  0.00  0.00    +0.000 C 
BRANCH  18  19
ATOM     19  C   UNL     1      46.761   8.935  16.894  0.00  0.00    +0.000 C 
BRANCH  19  20
ATOM     20  N   UNL     1      45.466   8.353  17.219  0.00  0.00    +0.000 NA
ATOM     21  C   UNL     1      44.748   7.934  16.059  0.00  0.00    +0.000 C 
ATOM     22  C   UNL     1      43.737   6.881  16.343  0.00  0.00    +0.000 C 
ATOM     23  C   UNL     1      43.306   6.796  17.761  0.00  0.00    +0.000 C 
ATOM     24  C   UNL     1      44.225   7.012  18.686  0.00  0.00    +0.000 C 
ATOM     25  C   UNL     1      43.944   6.961  20.131  0.00  0.00    +0.000 C 
ATOM     26  C   UNL     1      42.551   6.649  20.510  0.00  0.00    +0.000 C 
ATOM     27  C   UNL     1      41.589   6.423  19.445  0.00  0.00    +0.000 A 
ATOM     28  C   UNL     1      40.287   6.131  19.787  0.00  0.00    +0.000 A 
ATOM     29  C   UNL     1      39.322   5.904  18.825  0.00  0.00    +0.000 A 
ATOM     30  C   UNL     1      39.659   5.968  17.476  0.00  0.00    +0.000 A 
ATOM     31  C   UNL     1      40.964   6.261  17.163  0.00  0.00    +0.000 A 
ATOM     32  C   UNL     1      41.920   6.486  18.129  0.00  0.00    +0.000 A 
ATOM     33  C   UNL     1      45.594   7.321  18.232  0.00  0.00    +0.000 C 
ENDBRANCH  19  20
ENDBRANCH  18  19
ENDBRANCH   1  18
TORSDOF 7
ENDMDL
MODEL 7
REMARK VINA RESULT:      -5.5     29.960     33.081
REMARK  Name = 
REMARK  7 active torsions:
REMARK  status: ('A' for Active; 'I' for Inactive)
REMARK    1  A    between atoms: C_2  and  C_22
REMARK    2  A    between atoms: N_3  and  C_4
REMARK    3  A    between atoms: C_4  and  C_5
REMARK    4  A    between atoms: C_5  and  C_6
REMARK    5  A    between atoms: C_6  and  C_7
REMARK    6  A    between atoms: C_7  and  N_8
REMARK    7  A    between atoms: C_25  and  C_26
REMARK                            x       y       z     vdW  Elec       q    Type
REMARK                         _______ _______ _______ _____ _____    ______ ____
ROOT
ATOM      1  C   UNL     1      24.195  -6.561  44.017  0.00  0.00    +0.000 C 
ENDROOT
BRANCH   1   2
ATOM      2  C   UNL     1      25.642  -6.883  44.288  0.00  0.00    +0.000 C 
BRANCH   2   5
ATOM      3  O   UNL     1      27.119  -8.182  42.358  0.00  0.00    +0.000 OA
ATOM      4  C   UNL     1      26.636  -8.907  43.255  0.00  0.00    +0.000 C 
ATOM      5  N   UNL     1      25.861  -8.316  44.288  0.00  0.00    +0.000 NA
BRANCH   4   6
ATOM      6  C   UNL     1      26.873 -10.346  43.230  0.00  0.00    +0.000 A 
ATOM      7  C   UNL     1      25.920 -11.219  43.694  0.00  0.00    +0.000 A 
ATOM      8  C   UNL     1      26.132 -12.571  43.677  0.00  0.00    +0.000 A 
ATOM      9  C   UNL     1      27.313 -13.109  43.190  0.00  0.00    +0.000 A 
ATOM     10  C   UNL     1      28.245 -12.207  42.732  0.00  0.00    +0.000 A 
ATOM     11  C   UNL     1      28.051 -10.850  42.742  0.00  0.00    +0.000 A 
BRANCH   9  12
ATOM     12  C   UNL     1      27.547 -14.550  43.166  0.00  0.00    +0.000 A 
ATOM     13  C   UNL     1      26.591 -15.469  43.529  0.00  0.00    +0.000 A 
ATOM     14  C   UNL     1      26.883 -16.821  43.483  0.00  0.00    +0.000 A 
ATOM     15  C   UNL     1      28.114 -17.272  43.080  0.00  0.00    +0.000 A 
ATOM     16  C   UNL     1      29.079 -16.364  42.714  0.00  0.00    +0.000 A 
ATOM     17  C   UNL     1      28.778 -15.013  42.763  0.00  0.00    +0.000 A 
ENDBRANCH   9  12
ENDBRANCH   4   6
ENDBRANCH   2   5
ENDBRANCH   1   2
BRANCH   1  18
ATOM     18  C   UNL     1      24.071  -6.384  42.499  0.00  0.00    +0.000 C 
BRANCH  18  19
ATOM     19  C   UNL     1      23.053  -7.373  41.959  0.00  0.00    +0.000 C 
BRANCH  19  20
ATOM     20  N   UNL     1      23.705  -8.592  41.499  0.00  0.00    +0.000 NA
ATOM     21  C   UNL     1      22.902  -9.753  41.708  0.00  0.00    +0.000 C 
ATOM     22  C   UNL     1      23.248 -10.877  40.799  0.00  0.00    +0.000 C 
ATOM     23  C   UNL     1      24.607 -10.804  40.206  0.00  0.00    +0.000 C 
ATOM     24  C   UNL     1      25.061  -9.606  39.880  0.00  0.00    +0.000 C 
ATOM     25  C   UNL     1      26.388  -9.380  39.283  0.00  0.00    +0.000 C 
ATOM     26  C   UNL     1      27.212 -10.585  39.059  0.00  0.00    +0.000 C 
ATOM     27  C   UNL     1      26.656 -11.872  39.439  0.00  0.00    +0.000 A 
ATOM     28  C   UNL     1      27.415 -13.003  39.234  0.00  0.00    +0.000 A 
ATOM     29  C   UNL     1      26.947 -14.257  39.571  0.00  0.00    +0.000 A 
ATOM     30  C   UNL     1      25.680 -14.397  40.132  0.00  0.00    +0.000 A 
ATOM     31  C   UNL     1      24.944 -13.254  40.326  0.00  0.00    +0.000 A 
ATOM     32  C   UNL     1      25.419 -12.007  39.986  0.00  0.00    +0.000 A 
ATOM     33  C   UNL     1      24.182  -8.449  40.136  0.00  0.00    +0.000 C 
ENDBRANCH  19  20
ENDBRANCH  18  19
ENDBRANCH   1  18
TORSDOF 7
ENDMDL
MODEL 8
REMARK VINA RESULT:      -5.3      7.999     10.977
REMARK  Name = 
REMARK  7 active torsions:
REMARK  status: ('A' for Active; 'I' for Inactive)
REMARK    1  A    between atoms: C_2  and  C_22
REMARK    2  A    between atoms: N_3  and  C_4
REMARK    3  A    between atoms: C_4  and  C_5
REMARK    4  A    between atoms: C_5  and  C_6
REMARK    5  A    between atoms: C_6  and  C_7
REMARK    6  A    between atoms: C_7  and  N_8
REMARK    7  A    between atoms: C_25  and  C_26
REMARK                            x       y       z     vdW  Elec       q    Type
REMARK                         _______ _______ _______ _____ _____    ______ ____
ROOT
ATOM      1  C   UNL     1      36.467   7.576  14.091  0.00  0.00    +0.000 C 
ENDROOT
BRANCH   1   2
ATOM      2  C   UNL     1      36.862   6.359  14.888  0.00  0.00    +0.000 C 
BRANCH   2   5
ATOM      3  O   UNL     1      38.283   4.434  16.255  0.00  0.00    +0.000 OA
ATOM      4  C   UNL     1      38.618   5.618  16.476  0.00  0.00    +0.000 C 
ATOM      5  N   UNL     1      37.935   6.671  15.811  0.00  0.00    +0.000 NA
BRANCH   4   6
ATOM      6  C   UNL     1      39.702   5.903  17.409  0.00  0.00    +0.000 A 
ATOM      7  C   UNL     1      40.924   6.330  16.951  0.00  0.00    +0.000 A 
ATOM      8  C   UNL     1      41.949   6.600  17.817  0.00  0.00    +0.000 A 
ATOM      9  C   UNL     1      41.791   6.454  19.187  0.00  0.00    +0.000 A 
ATOM     10  C   UNL     1      40.555   6.025  19.612  0.00  0.00    +0.000 A 
ATOM     11  C   UNL     1      39.517   5.749  18.759  0.00  0.00    +0.000 A 
BRANCH   9  12
ATOM     12  C   UNL     1      42.878   6.740  20.119  0.00  0.00    +0.000 A 
ATOM     13  C   UNL     1      43.849   7.681  19.868  0.00  0.00    +0.000 A 
ATOM     14  C   UNL     1      44.851   7.899  20.798  0.00  0.00    +0.000 A 
ATOM     15  C   UNL     1      44.900   7.195  21.974  0.00  0.00    +0.000 A 
ATOM     16  C   UNL     1      43.935   6.252  22.237  0.00  0.00    +0.000 A 
ATOM     17  C   UNL     1      42.936   6.039  21.301  0.00  0.00    +0.000 A 
ENDBRANCH   9  12
ENDBRANCH   4   6
ENDBRANCH   2   5
ENDBRANCH   1   2
BRANCH   1  18
ATOM     18  C   UNL     1      35.054   7.951  14.553  0.00  0.00    +0.000 C 
BRANCH  18  19
ATOM     19  C   UNL     1      35.061   9.369  15.093  0.00  0.00    +0.000 C 
BRANCH  19  20
ATOM     20  N   UNL     1      36.152   9.561  16.039  0.00  0.00    +0.000 NA
ATOM     21  C   UNL     1      37.036  10.611  15.650  0.00  0.00    +0.000 C 
ATOM     22  C   UNL     1      37.792  11.195  16.789  0.00  0.00    +0.000 C 
ATOM     23  C   UNL     1      37.884  10.324  17.988  0.00  0.00    +0.000 C 
ATOM     24  C   UNL     1      36.828   9.586  18.283  0.00  0.00    +0.000 C 
ATOM     25  C   UNL     1      36.775   8.676  19.440  0.00  0.00    +0.000 C 
ATOM     26  C   UNL     1      37.989   8.624  20.279  0.00  0.00    +0.000 C 
ATOM     27  C   UNL     1      39.116   9.459  19.901  0.00  0.00    +0.000 A 
ATOM     28  C   UNL     1      40.253   9.419  20.678  0.00  0.00    +0.000 A 
ATOM     29  C   UNL     1      41.360  10.187  20.377  0.00  0.00    +0.000 A 
ATOM     30  C   UNL     1      41.340  11.026  19.265  0.00  0.00    +0.000 A 
ATOM     31  C   UNL     1      40.194  11.047  18.509  0.00  0.00    +0.000 A 
ATOM     32  C   UNL     1      39.095  10.278  18.818  0.00  0.00    +0.000 A 
ATOM     33  C   UNL     1      35.653   9.689  17.396  0.00  0.00    +0.000 C 
ENDBRANCH  19  20
ENDBRANCH  18  19
ENDBRANCH   1  18
TORSDOF 7
ENDMDL
MODEL 9
REMARK VINA RESULT:      -5.2      7.879     10.841
REMARK  Name = 
REMARK  7 active torsions:
REMARK  status: ('A' for Active; 'I' for Inactive)
REMARK    1  A    between atoms: C_2  and  C_22
REMARK    2  A    between atoms: N_3  and  C_4
REMARK    3  A    between atoms: C_4  and  C_5
REMARK    4  A    between atoms: C_5  and  C_6
REMARK    5  A    between atoms: C_6  and  C_7
REMARK    6  A    between atoms: C_7  and  N_8
REMARK    7  A    between atoms: C_25  and  C_26
REMARK                            x       y       z     vdW  Elec       q    Type
REMARK                         _______ _______ _______ _____ _____    ______ ____
ROOT
ATOM      1  C   UNL     1      44.226  11.434  18.721  0.00  0.00    +0.000 C 
ENDROOT
BRANCH   1   2
ATOM      2  C   UNL     1      42.899  11.356  19.432  0.00  0.00    +0.000 C 
BRANCH   2   5
ATOM      3  O   UNL     1      40.797   9.746  20.195  0.00  0.00    +0.000 OA
ATOM      4  C   UNL     1      40.801  10.105  18.998  0.00  0.00    +0.000 C 
ATOM      5  N   UNL     1      41.851  10.936  18.523  0.00  0.00    +0.000 NA
BRANCH   4   6
ATOM      6  C   UNL     1      39.734   9.667  18.106  0.00  0.00    +0.000 A 
ATOM      7  C   UNL     1      38.504   9.317  18.607  0.00  0.00    +0.000 A 
ATOM      8  C   UNL     1      37.495   8.903  17.780  0.00  0.00    +0.000 A 
ATOM      9  C   UNL     1      37.676   8.824  16.408  0.00  0.00    +0.000 A 
ATOM     10  C   UNL     1      38.919   9.182  15.939  0.00  0.00    +0.000 A 
ATOM     11  C   UNL     1      39.941   9.598  16.752  0.00  0.00    +0.000 A 
BRANCH   9  12
ATOM     12  C   UNL     1      36.606   8.385  15.517  0.00  0.00    +0.000 A 
ATOM     13  C   UNL     1      35.320   8.866  15.601  0.00  0.00    +0.000 A 
ATOM     14  C   UNL     1      34.354   8.404  14.723  0.00  0.00    +0.000 A 
ATOM     15  C   UNL     1      34.650   7.471  13.762  0.00  0.00    +0.000 A 
ATOM     16  C   UNL     1      35.931   6.982  13.667  0.00  0.00    +0.000 A 
ATOM     17  C   UNL     1      36.891   7.450  14.550  0.00  0.00    +0.000 A 
ENDBRANCH   9  12
ENDBRANCH   4   6
ENDBRANCH   2   5
ENDBRANCH   1   2
BRANCH   1  18
ATOM     18  C   UNL     1      45.103  10.332  19.327  0.00  0.00    +0.000 C 
BRANCH  18  19
ATOM     19  C   UNL     1      45.330   9.245  18.292  0.00  0.00    +0.000 C 
BRANCH  19  20
ATOM     20  N   UNL     1      44.115   8.473  18.072  0.00  0.00    +0.000 NA
ATOM     21  C   UNL     1      43.981   8.037  16.720  0.00  0.00    +0.000 C 
ATOM     22  C   UNL     1      43.110   6.841  16.571  0.00  0.00    +0.000 C 
ATOM     23  C   UNL     1      42.176   6.606  17.700  0.00  0.00    +0.000 C 
ATOM     24  C   UNL     1      42.614   6.884  18.916  0.00  0.00    +0.000 C 
ATOM     25  C   UNL     1      41.800   6.701  20.130  0.00  0.00    +0.000 C 
ATOM     26  C   UNL     1      40.434   6.179  19.922  0.00  0.00    +0.000 C 
ATOM     27  C   UNL     1      40.013   5.895  18.561  0.00  0.00    +0.000 A 
ATOM     28  C   UNL     1      38.741   5.408  18.355  0.00  0.00    +0.000 A 
ATOM     29  C   UNL     1      38.276   5.115  17.088  0.00  0.00    +0.000 A 
ATOM     30  C   UNL     1      39.102   5.313  15.984  0.00  0.00    +0.000 A 
ATOM     31  C   UNL     1      40.365   5.800  16.217  0.00  0.00    +0.000 A 
ATOM     32  C   UNL     1      40.819   6.088  17.485  0.00  0.00    +0.000 A 
ATOM     33  C   UNL     1      43.989   7.404  19.045  0.00  0.00    +0.000 C 
ENDBRANCH  19  20
ENDBRANCH  18  19
ENDBRANCH   1  18
TORSDOF 7
ENDMDL
MODEL 10
REMARK VINA RESULT:      -5.1      3.406      6.328
REMARK  Name = 
REMARK  7 active torsions:
REMARK  status: ('A' for Active; 'I' for Inactive)
REMARK    1  A    between atoms: C_2  and  C_22
REMARK    2  A    between atoms: N_3  and  C_4
REMARK    3  A    between atoms: C_4  and  C_5
REMARK    4  A    between atoms: C_5  and  C_6
REMARK    5  A    between atoms: C_6  and  C_7
REMARK    6  A    between atoms: C_7  and  N_8
REMARK    7  A    between atoms: C_25  and  C_26
REMARK                            x       y       z     vdW  Elec       q    Type
REMARK                         _______ _______ _______ _____ _____    ______ ____
ROOT
ATOM      1  C   UNL     1      39.898   1.176  10.630  0.00  0.00    +0.000 C 
ENDROOT
BRANCH   1   2
ATOM      2  C   UNL     1      39.571   2.647  10.611  0.00  0.00    +0.000 C 
BRANCH   2   5
ATOM      3  O   UNL     1      37.521   3.867  11.989  0.00  0.00    +0.000 OA
ATOM      4  C   UNL     1      38.627   3.841  12.570  0.00  0.00    +0.000 C 
ATOM      5  N   UNL     1      39.737   3.230  11.928  0.00  0.00    +0.000 NA
BRANCH   4   6
ATOM      6  C   UNL     1      38.766   4.434  13.895  0.00  0.00    +0.000 A 
ATOM      7  C   UNL     1      39.180   5.736  14.038  0.00  0.00    +0.000 A 
ATOM      8  C   UNL     1      39.315   6.303  15.276  0.00  0.00    +0.000 A 
ATOM      9  C   UNL     1      39.036   5.588  16.430  0.00  0.00    +0.000 A 
ATOM     10  C   UNL     1      38.623   4.287  16.252  0.00  0.00    +0.000 A 
ATOM     11  C   UNL     1      38.484   3.702  15.019  0.00  0.00    +0.000 A 
BRANCH   9  12
ATOM     12  C   UNL     1      39.175   6.184  17.755  0.00  0.00    +0.000 A 
ATOM     13  C   UNL     1      40.151   5.804  18.647  0.00  0.00    +0.000 A 
ATOM     14  C   UNL     1      40.223   6.413  19.888  0.00  0.00    +0.000 A 
ATOM     15  C   UNL     1      39.338   7.395  20.254  0.00  0.00    +0.000 A 
ATOM     16  C   UNL     1      38.359   7.785  19.372  0.00  0.00    +0.000 A 
ATOM     17  C   UNL     1      38.294   7.170  18.132  0.00  0.00    +0.000 A 
ENDBRANCH   9  12
ENDBRANCH   4   6
ENDBRANCH   2   5
ENDBRANCH   1   2
BRANCH   1  18
ATOM     18  C   UNL     1      38.638   0.462  11.133  0.00  0.00    +0.000 C 
BRANCH  18  19
ATOM     19  C   UNL     1      39.019  -0.892  11.701  0.00  0.00    +0.000 C 
BRANCH  19  20
ATOM     20  N   UNL     1      38.621  -1.002  13.098  0.00  0.00    +0.000 NA
ATOM     21  C   UNL     1      39.599  -1.670  13.894  0.00  0.00    +0.000 C 
ATOM     22  C   UNL     1      39.513  -1.329  15.338  0.00  0.00    +0.000 C 
ATOM     23  C   UNL     1      38.203  -0.783  15.773  0.00  0.00    +0.000 C 
ATOM     24  C   UNL     1      37.569   0.012  14.929  0.00  0.00    +0.000 C 
ATOM     25  C   UNL     1      36.264   0.627  15.223  0.00  0.00    +0.000 C 
ATOM     26  C   UNL     1      35.679   0.306  16.541  0.00  0.00    +0.000 C 
ATOM     27  C   UNL     1      36.425  -0.574  17.423  0.00  0.00    +0.000 A 
ATOM     28  C   UNL     1      35.889  -0.880  18.654  0.00  0.00    +0.000 A 
ATOM     29  C   UNL     1      36.546  -1.709  19.542  0.00  0.00    +0.000 A 
ATOM     30  C   UNL     1      37.780  -2.256  19.196  0.00  0.00    +0.000 A 
ATOM     31  C   UNL     1      38.291  -1.935  17.963  0.00  0.00    +0.000 A 
ATOM     32  C   UNL     1      37.629  -1.106  17.085  0.00  0.00    +0.000 A 
ATOM     33  C   UNL     1      38.214   0.284  13.630  0.00  0.00    +0.000 C 
ENDBRANCH  19  20
ENDBRANCH  18  19
ENDBRANCH   1  18
TORSDOF 7
ENDMDL
