MODEL 1
REMARK VINA RESULT:      -6.5      0.000      0.000
REMARK  Name = 
REMARK  2 active torsions:
REMARK  status: ('A' for Active; 'I' for Inactive)
REMARK    1  A    between atoms: O_2  and  C_3
REMARK    2  A    between atoms: C_5  and  C_6
REMARK                            x       y       z     vdW  Elec       q    Type
REMARK                         _______ _______ _______ _____ _____    ______ ____
ROOT
ATOM      1  C   UNL     1      31.483  22.545  11.309  0.00  0.00    +0.000 C 
ATOM      2  N   UNL     1      31.696  22.470   9.890  0.00  0.00    +0.000 N 
ATOM      3  C   UNL     1      30.879  23.107   8.894  0.00  0.00    +0.000 C 
ATOM      4  C   UNL     1      32.844  21.663   9.692  0.00  0.00    +0.000 A 
ATOM      5  C   UNL     1      33.720  21.487   8.618  0.00  0.00    +0.000 A 
ATOM      6  C   UNL     1      34.759  20.601   8.758  0.00  0.00    +0.000 A 
ATOM      7  C   UNL     1      34.935  19.903   9.931  0.00  0.00    +0.000 A 
ATOM      8  C   UNL     1      34.095  20.049  11.011  0.00  0.00    +0.000 A 
ATOM      9  C   UNL     1      33.047  20.947  10.853  0.00  0.00    +0.000 A 
ATOM     10  N   UNL     1      32.039  21.295  11.784  0.00  0.00    +0.000 N 
ATOM     11  C   UNL     1      31.644  20.556  12.968  0.00  0.00    +0.000 C 
ENDROOT
BRANCH   1  14
ATOM     12  C   UNL     1      28.275  23.640  12.976  0.00  0.00    +0.000 A 
ATOM     13  C   UNL     1      29.622  23.538  12.691  0.00  0.00    +0.000 A 
ATOM     14  C   UNL     1      30.067  22.719  11.686  0.00  0.00    +0.000 A 
ATOM     15  C   UNL     1      29.109  22.006  10.978  0.00  0.00    +0.000 A 
ATOM     16  C   UNL     1      27.759  22.107  11.262  0.00  0.00    +0.000 A 
ATOM     17  C   UNL     1      27.319  22.933  12.274  0.00  0.00    +0.000 A 
ATOM     18  O   UNL     1      25.973  23.070  12.600  0.00  0.00    +0.000 OA
BRANCH  12  20
ATOM     19  C   UNL     1      28.695  25.268  14.773  0.00  0.00    +0.000 C 
ATOM     20  O   UNL     1      27.824  24.478  14.003  0.00  0.00    +0.000 OA
ENDBRANCH  12  20
ENDBRANCH   1  14
TORSDOF 2
ENDMDL
MODEL 2
REMARK VINA RESULT:      -6.5     28.074     29.998
REMARK  Name = 
REMARK  2 active torsions:
REMARK  status: ('A' for Active; 'I' for Inactive)
REMARK    1  A    between atoms: O_2  and  C_3
REMARK    2  A    between atoms: C_5  and  C_6
REMARK                            x       y       z     vdW  Elec       q    Type
REMARK                         _______ _______ _______ _____ _____    ______ ____
ROOT
ATOM      1  C   UNL     1      15.551  10.669  34.827  0.00  0.00    +0.000 C 
ATOM      2  N   UNL     1      15.453  11.248  36.139  0.00  0.00    +0.000 N 
ATOM      3  C   UNL     1      14.443  12.179  36.559  0.00  0.00    +0.000 C 
ATOM      4  C   UNL     1      16.527  10.722  36.899  0.00  0.00    +0.000 A 
ATOM      5  C   UNL     1      16.782  10.639  38.269  0.00  0.00    +0.000 A 
ATOM      6  C   UNL     1      17.952  10.053  38.683  0.00  0.00    +0.000 A 
ATOM      7  C   UNL     1      18.854   9.559  37.769  0.00  0.00    +0.000 A 
ATOM      8  C   UNL     1      18.639   9.622  36.411  0.00  0.00    +0.000 A 
ATOM      9  C   UNL     1      17.451  10.218  36.008  0.00  0.00    +0.000 A 
ATOM     10  N   UNL     1      16.971  10.420  34.691  0.00  0.00    +0.000 N 
ATOM     11  C   UNL     1      17.740  10.384  33.462  0.00  0.00    +0.000 C 
ENDROOT
BRANCH   1  14
ATOM     12  C   UNL     1      14.016  13.526  32.891  0.00  0.00    +0.000 A 
ATOM     13  C   UNL     1      14.491  12.783  33.953  0.00  0.00    +0.000 A 
ATOM     14  C   UNL     1      15.019  11.534  33.756  0.00  0.00    +0.000 A 
ATOM     15  C   UNL     1      15.054  11.058  32.452  0.00  0.00    +0.000 A 
ATOM     16  C   UNL     1      14.579  11.800  31.387  0.00  0.00    +0.000 A 
ATOM     17  C   UNL     1      14.048  13.056  31.592  0.00  0.00    +0.000 A 
ATOM     18  O   UNL     1      13.556  13.843  30.555  0.00  0.00    +0.000 OA
BRANCH  12  20
ATOM     19  C   UNL     1      12.960  15.215  34.334  0.00  0.00    +0.000 C 
ATOM     20  O   UNL     1      13.477  14.801  33.095  0.00  0.00    +0.000 OA
ENDBRANCH  12  20
ENDBRANCH   1  14
TORSDOF 2
ENDMDL
MODEL 3
REMARK VINA RESULT:      -6.4     12.153     15.976
REMARK  Name = 
REMARK  2 active torsions:
REMARK  status: ('A' for Active; 'I' for Inactive)
REMARK    1  A    between atoms: O_2  and  C_3
REMARK    2  A    between atoms: C_5  and  C_6
REMARK                            x       y       z     vdW  Elec       q    Type
REMARK                         _______ _______ _______ _____ _____    ______ ____
ROOT
ATOM      1  C   UNL     1      26.505  23.828  25.759  0.00  0.00    +0.000 C 
ATOM      2  N   UNL     1      26.223  25.106  26.352  0.00  0.00    +0.000 N 
ATOM      3  C   UNL     1      26.154  26.353  25.641  0.00  0.00    +0.000 C 
ATOM      4  C   UNL     1      26.034  24.880  27.739  0.00  0.00    +0.000 A 
ATOM      5  C   UNL     1      25.437  25.624  28.759  0.00  0.00    +0.000 A 
ATOM      6  C   UNL     1      25.425  25.102  30.028  0.00  0.00    +0.000 A 
ATOM      7  C   UNL     1      25.987  23.873  30.289  0.00  0.00    +0.000 A 
ATOM      8  C   UNL     1      26.583  23.111  29.311  0.00  0.00    +0.000 A 
ATOM      9  C   UNL     1      26.589  23.653  28.033  0.00  0.00    +0.000 A 
ATOM     10  N   UNL     1      27.127  23.100  26.846  0.00  0.00    +0.000 N 
ATOM     11  C   UNL     1      28.098  22.027  26.738  0.00  0.00    +0.000 C 
ENDROOT
BRANCH   1  14
ATOM     12  C   UNL     1      29.457  24.079  23.416  0.00  0.00    +0.000 A 
ATOM     13  C   UNL     1      28.731  24.010  24.587  0.00  0.00    +0.000 A 
ATOM     14  C   UNL     1      27.364  23.908  24.562  0.00  0.00    +0.000 A 
ATOM     15  C   UNL     1      26.753  23.877  23.315  0.00  0.00    +0.000 A 
ATOM     16  C   UNL     1      27.479  23.946  22.140  0.00  0.00    +0.000 A 
ATOM     17  C   UNL     1      28.854  24.049  22.173  0.00  0.00    +0.000 A 
ATOM     18  O   UNL     1      29.630  24.121  21.020  0.00  0.00    +0.000 OA
BRANCH  12  20
ATOM     19  C   UNL     1      31.636  23.575  24.441  0.00  0.00    +0.000 C 
ATOM     20  O   UNL     1      30.853  24.183  23.446  0.00  0.00    +0.000 OA
ENDBRANCH  12  20
ENDBRANCH   1  14
TORSDOF 2
ENDMDL
MODEL 4
REMARK VINA RESULT:      -6.1     12.147     16.015
REMARK  Name = 
REMARK  2 active torsions:
REMARK  status: ('A' for Active; 'I' for Inactive)
REMARK    1  A    between atoms: O_2  and  C_3
REMARK    2  A    between atoms: C_5  and  C_6
REMARK                            x       y       z     vdW  Elec       q    Type
REMARK                         _______ _______ _______ _____ _____    ______ ____
ROOT
ATOM      1  C   UNL     1      28.643  24.456  26.615  0.00  0.00    +0.000 C 
ATOM      2  N   UNL     1      28.708  23.163  27.241  0.00  0.00    +0.000 N 
ATOM      3  C   UNL     1      29.500  22.058  26.777  0.00  0.00    +0.000 C 
ATOM      4  C   UNL     1      27.854  23.213  28.371  0.00  0.00    +0.000 A 
ATOM      5  C   UNL     1      27.739  22.430  29.521  0.00  0.00    +0.000 A 
ATOM      6  C   UNL     1      26.778  22.759  30.444  0.00  0.00    +0.000 A 
ATOM      7  C   UNL     1      25.947  23.838  30.241  0.00  0.00    +0.000 A 
ATOM      8  C   UNL     1      26.030  24.633  29.122  0.00  0.00    +0.000 A 
ATOM      9  C   UNL     1      27.006  24.287  28.197  0.00  0.00    +0.000 A 
ATOM     10  N   UNL     1      27.316  24.917  26.967  0.00  0.00    +0.000 N 
ATOM     11  C   UNL     1      26.480  25.833  26.215  0.00  0.00    +0.000 C 
ENDROOT
BRANCH   1  14
ATOM     12  C   UNL     1      28.331  23.805  22.908  0.00  0.00    +0.000 A 
ATOM     13  C   UNL     1      28.047  23.788  24.258  0.00  0.00    +0.000 A 
ATOM     14  C   UNL     1      28.866  24.420  25.157  0.00  0.00    +0.000 A 
ATOM     15  C   UNL     1      29.983  25.070  24.649  0.00  0.00    +0.000 A 
ATOM     16  C   UNL     1      30.270  25.089  23.297  0.00  0.00    +0.000 A 
ATOM     17  C   UNL     1      29.441  24.451  22.398  0.00  0.00    +0.000 A 
ATOM     18  O   UNL     1      29.685  24.440  21.028  0.00  0.00    +0.000 OA
BRANCH  12  20
ATOM     19  C   UNL     1      26.252  23.689  21.599  0.00  0.00    +0.000 C 
ATOM     20  O   UNL     1      27.492  23.160  21.992  0.00  0.00    +0.000 OA
ENDBRANCH  12  20
ENDBRANCH   1  14
TORSDOF 2
ENDMDL
MODEL 5
REMARK VINA RESULT:      -6.1     12.376     15.526
REMARK  Name = 
REMARK  2 active torsions:
REMARK  status: ('A' for Active; 'I' for Inactive)
REMARK    1  A    between atoms: O_2  and  C_3
REMARK    2  A    between atoms: C_5  and  C_6
REMARK                            x       y       z     vdW  Elec       q    Type
REMARK                         _______ _______ _______ _____ _____    ______ ____
ROOT
ATOM      1  C   UNL     1      28.102  23.160  25.576  0.00  0.00    +0.000 C 
ATOM      2  N   UNL     1      29.039  24.231  25.370  0.00  0.00    +0.000 N 
ATOM      3  C   UNL     1      29.877  24.804  26.386  0.00  0.00    +0.000 C 
ATOM      4  C   UNL     1      28.961  24.584  24.000  0.00  0.00    +0.000 A 
ATOM      5  C   UNL     1      29.806  25.290  23.142  0.00  0.00    +0.000 A 
ATOM      6  C   UNL     1      29.420  25.461  21.836  0.00  0.00    +0.000 A 
ATOM      7  C   UNL     1      28.227  24.947  21.382  0.00  0.00    +0.000 A 
ATOM      8  C   UNL     1      27.367  24.246  22.196  0.00  0.00    +0.000 A 
ATOM      9  C   UNL     1      27.771  24.083  23.515  0.00  0.00    +0.000 A 
ATOM     10  N   UNL     1      27.097  23.415  24.565  0.00  0.00    +0.000 N 
ATOM     11  C   UNL     1      25.692  23.058  24.620  0.00  0.00    +0.000 C 
ENDROOT
BRANCH   1  14
ATOM     12  C   UNL     1      26.194  23.926  28.744  0.00  0.00    +0.000 A 
ATOM     13  C   UNL     1      26.671  24.043  27.454  0.00  0.00    +0.000 A 
ATOM     14  C   UNL     1      27.541  23.118  26.940  0.00  0.00    +0.000 A 
ATOM     15  C   UNL     1      27.915  22.069  27.769  0.00  0.00    +0.000 A 
ATOM     16  C   UNL     1      27.439  21.950  29.062  0.00  0.00    +0.000 A 
ATOM     17  C   UNL     1      26.563  22.884  29.573  0.00  0.00    +0.000 A 
ATOM     18  O   UNL     1      26.055  22.810  30.867  0.00  0.00    +0.000 OA
BRANCH  12  20
ATOM     19  C   UNL     1      24.670  25.837  28.465  0.00  0.00    +0.000 C 
ATOM     20  O   UNL     1      25.304  24.872  29.266  0.00  0.00    +0.000 OA
ENDBRANCH  12  20
ENDBRANCH   1  14
TORSDOF 2
ENDMDL
MODEL 6
REMARK VINA RESULT:      -5.9     12.131     15.745
REMARK  Name = 
REMARK  2 active torsions:
REMARK  status: ('A' for Active; 'I' for Inactive)
REMARK    1  A    between atoms: O_2  and  C_3
REMARK    2  A    between atoms: C_5  and  C_6
REMARK                            x       y       z     vdW  Elec       q    Type
REMARK                         _______ _______ _______ _____ _____    ______ ____
ROOT
ATOM      1  C   UNL     1      28.383  24.772  26.341  0.00  0.00    +0.000 C 
ATOM      2  N   UNL     1      29.213  23.915  27.142  0.00  0.00    +0.000 N 
ATOM      3  C   UNL     1      30.571  23.559  26.840  0.00  0.00    +0.000 C 
ATOM      4  C   UNL     1      28.431  23.513  28.254  0.00  0.00    +0.000 A 
ATOM      5  C   UNL     1      28.746  22.974  29.503  0.00  0.00    +0.000 A 
ATOM      6  C   UNL     1      27.721  22.689  30.370  0.00  0.00    +0.000 A 
ATOM      7  C   UNL     1      26.412  22.929  30.017  0.00  0.00    +0.000 A 
ATOM      8  C   UNL     1      26.063  23.459  28.796  0.00  0.00    +0.000 A 
ATOM      9  C   UNL     1      27.110  23.741  27.930  0.00  0.00    +0.000 A 
ATOM     10  N   UNL     1      27.049  24.284  26.624  0.00  0.00    +0.000 N 
ATOM     11  C   UNL     1      25.893  24.342  25.749  0.00  0.00    +0.000 C 
ENDROOT
BRANCH   1  14
ATOM     12  C   UNL     1      29.292  25.713  22.797  0.00  0.00    +0.000 A 
ATOM     13  C   UNL     1      28.996  25.838  24.139  0.00  0.00    +0.000 A 
ATOM     14  C   UNL     1      28.710  24.736  24.902  0.00  0.00    +0.000 A 
ATOM     15  C   UNL     1      28.733  23.502  24.267  0.00  0.00    +0.000 A 
ATOM     16  C   UNL     1      29.029  23.374  22.922  0.00  0.00    +0.000 A 
ATOM     17  C   UNL     1      29.316  24.487  22.161  0.00  0.00    +0.000 A 
ATOM     18  O   UNL     1      29.620  24.412  20.805  0.00  0.00    +0.000 OA
BRANCH  12  20
ATOM     19  C   UNL     1      28.971  28.086  22.235  0.00  0.00    +0.000 C 
ATOM     20  O   UNL     1      29.585  26.841  22.021  0.00  0.00    +0.000 OA
ENDBRANCH  12  20
ENDBRANCH   1  14
TORSDOF 2
ENDMDL
MODEL 7
REMARK VINA RESULT:      -5.9     12.660     15.856
REMARK  Name = 
REMARK  2 active torsions:
REMARK  status: ('A' for Active; 'I' for Inactive)
REMARK    1  A    between atoms: O_2  and  C_3
REMARK    2  A    between atoms: C_5  and  C_6
REMARK                            x       y       z     vdW  Elec       q    Type
REMARK                         _______ _______ _______ _____ _____    ______ ____
ROOT
ATOM      1  C   UNL     1      27.315  24.691  25.967  0.00  0.00    +0.000 C 
ATOM      2  N   UNL     1      26.799  23.998  24.819  0.00  0.00    +0.000 N 
ATOM      3  C   UNL     1      25.736  23.031  24.843  0.00  0.00    +0.000 C 
ATOM      4  C   UNL     1      27.537  24.458  23.699  0.00  0.00    +0.000 A 
ATOM      5  C   UNL     1      27.312  24.421  22.322  0.00  0.00    +0.000 A 
ATOM      6  C   UNL     1      28.255  24.970  21.489  0.00  0.00    +0.000 A 
ATOM      7  C   UNL     1      29.396  25.545  22.001  0.00  0.00    +0.000 A 
ATOM      8  C   UNL     1      29.653  25.601  23.351  0.00  0.00    +0.000 A 
ATOM      9  C   UNL     1      28.691  25.040  24.180  0.00  0.00    +0.000 A 
ATOM     10  N   UNL     1      28.689  24.954  25.593  0.00  0.00    +0.000 N 
ATOM     11  C   UNL     1      29.825  25.100  26.483  0.00  0.00    +0.000 C 
ENDROOT
BRANCH   1  14
ATOM     12  C   UNL     1      26.450  23.545  29.461  0.00  0.00    +0.000 A 
ATOM     13  C   UNL     1      26.502  24.329  28.327  0.00  0.00    +0.000 A 
ATOM     14  C   UNL     1      27.203  23.922  27.222  0.00  0.00    +0.000 A 
ATOM     15  C   UNL     1      27.851  22.696  27.298  0.00  0.00    +0.000 A 
ATOM     16  C   UNL     1      27.800  21.908  28.433  0.00  0.00    +0.000 A 
ATOM     17  C   UNL     1      27.093  22.325  29.541  0.00  0.00    +0.000 A 
ATOM     18  O   UNL     1      27.011  21.570  30.708  0.00  0.00    +0.000 OA
BRANCH  12  20
ATOM     19  C   UNL     1      25.424  25.313  30.830  0.00  0.00    +0.000 C 
ATOM     20  O   UNL     1      25.733  23.964  30.588  0.00  0.00    +0.000 OA
ENDBRANCH  12  20
ENDBRANCH   1  14
TORSDOF 2
ENDMDL
MODEL 8
REMARK VINA RESULT:      -5.8     30.926     32.738
REMARK  Name = 
REMARK  2 active torsions:
REMARK  status: ('A' for Active; 'I' for Inactive)
REMARK    1  A    between atoms: O_2  and  C_3
REMARK    2  A    between atoms: C_5  and  C_6
REMARK                            x       y       z     vdW  Elec       q    Type
REMARK                         _______ _______ _______ _____ _____    ______ ____
ROOT
ATOM      1  C   UNL     1      20.523   9.802  39.141  0.00  0.00    +0.000 C 
ATOM      2  N   UNL     1      20.543   9.775  37.704  0.00  0.00    +0.000 N 
ATOM      3  C   UNL     1      19.381   9.751  36.859  0.00  0.00    +0.000 C 
ATOM      4  C   UNL     1      21.906   9.779  37.315  0.00  0.00    +0.000 A 
ATOM      5  C   UNL     1      22.561  10.078  36.119  0.00  0.00    +0.000 A 
ATOM      6  C   UNL     1      23.929   9.977  36.078  0.00  0.00    +0.000 A 
ATOM      7  C   UNL     1      24.640   9.588  37.191  0.00  0.00    +0.000 A 
ATOM      8  C   UNL     1      24.031   9.285  38.387  0.00  0.00    +0.000 A 
ATOM      9  C   UNL     1      22.646   9.391  38.412  0.00  0.00    +0.000 A 
ATOM     10  N   UNL     1      21.765   9.144  39.492  0.00  0.00    +0.000 N 
ATOM     11  C   UNL     1      22.045   8.390  40.699  0.00  0.00    +0.000 C 
ENDROOT
BRANCH   1  14
ATOM     12  C   UNL     1      18.048   7.249  40.415  0.00  0.00    +0.000 A 
ATOM     13  C   UNL     1      19.188   7.784  39.851  0.00  0.00    +0.000 A 
ATOM     14  C   UNL     1      19.342   9.140  39.728  0.00  0.00    +0.000 A 
ATOM     15  C   UNL     1      18.307   9.941  40.194  0.00  0.00    +0.000 A 
ATOM     16  C   UNL     1      17.164   9.407  40.760  0.00  0.00    +0.000 A 
ATOM     17  C   UNL     1      17.016   8.041  40.880  0.00  0.00    +0.000 A 
ATOM     18  O   UNL     1      15.885   7.454  41.441  0.00  0.00    +0.000 OA
BRANCH  12  20
ATOM     19  C   UNL     1      18.602   5.105  41.487  0.00  0.00    +0.000 C 
ATOM     20  O   UNL     1      17.894   5.863  40.540  0.00  0.00    +0.000 OA
ENDBRANCH  12  20
ENDBRANCH   1  14
TORSDOF 2
ENDMDL
MODEL 9
REMARK VINA RESULT:      -5.8     13.685     16.466
REMARK  Name = 
REMARK  2 active torsions:
REMARK  status: ('A' for Active; 'I' for Inactive)
REMARK    1  A    between atoms: O_2  and  C_3
REMARK    2  A    between atoms: C_5  and  C_6
REMARK                            x       y       z     vdW  Elec       q    Type
REMARK                         _______ _______ _______ _____ _____    ______ ____
ROOT
ATOM      1  C   UNL     1      30.053  22.102  26.620  0.00  0.00    +0.000 C 
ATOM      2  N   UNL     1      30.225  22.753  25.350  0.00  0.00    +0.000 N 
ATOM      3  C   UNL     1      31.488  23.127  24.777  0.00  0.00    +0.000 C 
ATOM      4  C   UNL     1      28.930  22.937  24.806  0.00  0.00    +0.000 A 
ATOM      5  C   UNL     1      28.459  23.197  23.517  0.00  0.00    +0.000 A 
ATOM      6  C   UNL     1      27.106  23.324  23.328  0.00  0.00    +0.000 A 
ATOM      7  C   UNL     1      26.232  23.197  24.384  0.00  0.00    +0.000 A 
ATOM      8  C   UNL     1      26.657  22.940  25.667  0.00  0.00    +0.000 A 
ATOM      9  C   UNL     1      28.029  22.816  25.843  0.00  0.00    +0.000 A 
ATOM     10  N   UNL     1      28.742  22.556  27.038  0.00  0.00    +0.000 N 
ATOM     11  C   UNL     1      28.263  22.711  28.398  0.00  0.00    +0.000 C 
ENDROOT
BRANCH   1  14
ATOM     12  C   UNL     1      32.568  23.901  28.788  0.00  0.00    +0.000 A 
ATOM     13  C   UNL     1      31.577  23.688  27.852  0.00  0.00    +0.000 A 
ATOM     14  C   UNL     1      31.108  22.426  27.600  0.00  0.00    +0.000 A 
ATOM     15  C   UNL     1      31.671  21.383  28.323  0.00  0.00    +0.000 A 
ATOM     16  C   UNL     1      32.664  21.594  29.262  0.00  0.00    +0.000 A 
ATOM     17  C   UNL     1      33.131  22.867  29.511  0.00  0.00    +0.000 A 
ATOM     18  O   UNL     1      34.129  23.133  30.445  0.00  0.00    +0.000 OA
BRANCH  12  20
ATOM     19  C   UNL     1      33.889  25.877  28.154  0.00  0.00    +0.000 C 
ATOM     20  O   UNL     1      33.044  25.192  29.044  0.00  0.00    +0.000 OA
ENDBRANCH  12  20
ENDBRANCH   1  14
TORSDOF 2
ENDMDL
MODEL 10
REMARK VINA RESULT:      -5.7     29.168     31.072
REMARK  Name = 
REMARK  2 active torsions:
REMARK  status: ('A' for Active; 'I' for Inactive)
REMARK    1  A    between atoms: O_2  and  C_3
REMARK    2  A    between atoms: C_5  and  C_6
REMARK                            x       y       z     vdW  Elec       q    Type
REMARK                         _______ _______ _______ _____ _____    ______ ____
ROOT
ATOM      1  C   UNL     1      33.608   3.311  35.736  0.00  0.00    +0.000 C 
ATOM      2  N   UNL     1      34.290   2.287  36.477  0.00  0.00    +0.000 N 
ATOM      3  C   UNL     1      35.073   2.504  37.661  0.00  0.00    +0.000 C 
ATOM      4  C   UNL     1      34.031   1.062  35.813  0.00  0.00    +0.000 A 
ATOM      5  C   UNL     1      34.129  -0.277  36.197  0.00  0.00    +0.000 A 
ATOM      6  C   UNL     1      33.795  -1.247  35.286  0.00  0.00    +0.000 A 
ATOM      7  C   UNL     1      33.371  -0.907  34.020  0.00  0.00    +0.000 A 
ATOM      8  C   UNL     1      33.261   0.399  33.605  0.00  0.00    +0.000 A 
ATOM      9  C   UNL     1      33.605   1.369  34.538  0.00  0.00    +0.000 A 
ATOM     10  N   UNL     1      33.590   2.777  34.389  0.00  0.00    +0.000 N 
ATOM     11  C   UNL     1      33.562   3.529  33.150  0.00  0.00    +0.000 C 
ENDROOT
BRANCH   1  14
ATOM     12  C   UNL     1      34.444   6.907  36.534  0.00  0.00    +0.000 A 
ATOM     13  C   UNL     1      33.768   5.705  36.514  0.00  0.00    +0.000 A 
ATOM     14  C   UNL     1      34.259   4.633  35.815  0.00  0.00    +0.000 A 
ATOM     15  C   UNL     1      35.458   4.813  35.138  0.00  0.00    +0.000 A 
ATOM     16  C   UNL     1      36.138   6.017  35.157  0.00  0.00    +0.000 A 
ATOM     17  C   UNL     1      35.637   7.091  35.862  0.00  0.00    +0.000 A 
ATOM     18  O   UNL     1      36.282   8.324  35.913  0.00  0.00    +0.000 OA
BRANCH  12  20
ATOM     19  C   UNL     1      33.603   7.923  38.611  0.00  0.00    +0.000 C 
ATOM     20  O   UNL     1      33.939   7.999  37.249  0.00  0.00    +0.000 OA
ENDBRANCH  12  20
ENDBRANCH   1  14
TORSDOF 2
ENDMDL
