MODEL 1
REMARK VINA RESULT:      -6.0      0.000      0.000
REMARK  Name = 
REMARK  5 active torsions:
REMARK  status: ('A' for Active; 'I' for Inactive)
REMARK    1  A    between atoms: C_2  and  C_3
REMARK    2  A    between atoms: C_3  and  C_4
REMARK    3  A    between atoms: C_4  and  C_5
REMARK    4  A    between atoms: C_8  and  C_9
REMARK    5  A    between atoms: C_14  and  C_15
REMARK                            x       y       z     vdW  Elec       q    Type
REMARK                         _______ _______ _______ _____ _____    ______ ____
ROOT
ATOM      1  C   UNL     1      16.846  10.791  34.265  0.00  0.00    +0.000 A 
ATOM      2  C   UNL     1      17.453   9.601  34.610  0.00  0.00    +0.000 A 
ATOM      3  C   UNL     1      17.908   9.344  35.902  0.00  0.00    +0.000 A 
ATOM      4  C   UNL     1      17.757  10.289  36.863  0.00  0.00    +0.000 A 
ATOM      5  C   UNL     1      17.156  11.482  36.545  0.00  0.00    +0.000 A 
ATOM      6  C   UNL     1      16.700  11.741  35.256  0.00  0.00    +0.000 A 
ENDROOT
BRANCH   4   7
ATOM      7  C   UNL     1      18.251  10.114  38.258  0.00  0.00    +0.000 A 
ATOM      8  C   UNL     1      17.336   9.661  39.183  0.00  0.00    +0.000 A 
ATOM      9  S   UNL     1      18.248   9.539  40.609  0.00  0.00    +0.000 S 
ATOM     10  C   UNL     1      19.753  10.061  40.013  0.00  0.00    +0.000 A 
ATOM     11  N   UNL     1      20.962  10.181  40.755  0.00  0.00    +0.000 NA
ATOM     12  C   UNL     1      19.502  10.323  38.686  0.00  0.00    +0.000 A 
BRANCH  12  13
ATOM     13  C   UNL     1      20.614  10.829  37.845  0.00  0.00    +0.000 C 
ATOM     14  N   UNL     1      21.359  10.014  36.966  0.00  0.00    +0.000 NA
ATOM     15  O   UNL     1      20.954  12.052  37.878  0.00  0.00    +0.000 OA
ENDBRANCH  12  13
ENDBRANCH   4   7
BRANCH   1  16
ATOM     16  C   UNL     1      16.351  11.100  32.911  0.00  0.00    +0.000 C 
BRANCH  16  17
ATOM     17  C   UNL     1      15.192  12.072  32.947  0.00  0.00    +0.000 C 
BRANCH  17  19
ATOM     18  C   UNL     1      13.779  13.624  31.691  0.00  0.00    +0.000 C 
ATOM     19  C   UNL     1      14.822  12.543  31.557  0.00  0.00    +0.000 C 
ENDBRANCH  17  19
ENDBRANCH  16  17
ENDBRANCH   1  16
TORSDOF 5
ENDMDL
MODEL 2
REMARK VINA RESULT:      -5.7     21.854     23.442
REMARK  Name = 
REMARK  5 active torsions:
REMARK  status: ('A' for Active; 'I' for Inactive)
REMARK    1  A    between atoms: C_2  and  C_3
REMARK    2  A    between atoms: C_3  and  C_4
REMARK    3  A    between atoms: C_4  and  C_5
REMARK    4  A    between atoms: C_8  and  C_9
REMARK    5  A    between atoms: C_14  and  C_15
REMARK                            x       y       z     vdW  Elec       q    Type
REMARK                         _______ _______ _______ _____ _____    ______ ____
ROOT
ATOM      1  C   UNL     1      32.914  25.141  24.997  0.00  0.00    +0.000 A 
ATOM      2  C   UNL     1      31.881  26.056  24.956  0.00  0.00    +0.000 A 
ATOM      3  C   UNL     1      30.570  25.687  24.662  0.00  0.00    +0.000 A 
ATOM      4  C   UNL     1      30.285  24.387  24.404  0.00  0.00    +0.000 A 
ATOM      5  C   UNL     1      31.295  23.456  24.437  0.00  0.00    +0.000 A 
ATOM      6  C   UNL     1      32.605  23.822  24.731  0.00  0.00    +0.000 A 
ENDROOT
BRANCH   4   7
ATOM      7  C   UNL     1      28.920  23.911  24.040  0.00  0.00    +0.000 A 
ATOM      8  C   UNL     1      28.214  23.256  25.024  0.00  0.00    +0.000 A 
ATOM      9  S   UNL     1      26.726  22.918  24.280  0.00  0.00    +0.000 S 
ATOM     10  C   UNL     1      27.025  23.604  22.754  0.00  0.00    +0.000 A 
ATOM     11  N   UNL     1      26.125  23.641  21.650  0.00  0.00    +0.000 NA
ATOM     12  C   UNL     1      28.307  24.092  22.863  0.00  0.00    +0.000 A 
BRANCH  12  13
ATOM     13  C   UNL     1      28.913  24.754  21.683  0.00  0.00    +0.000 C 
ATOM     14  N   UNL     1      28.706  26.111  21.358  0.00  0.00    +0.000 NA
ATOM     15  O   UNL     1      29.669  24.111  20.889  0.00  0.00    +0.000 OA
ENDBRANCH  12  13
ENDBRANCH   4   7
BRANCH   1  16
ATOM     16  C   UNL     1      34.312  25.492  25.304  0.00  0.00    +0.000 C 
BRANCH  16  17
ATOM     17  C   UNL     1      35.281  24.481  24.732  0.00  0.00    +0.000 C 
BRANCH  17  19
ATOM     18  C   UNL     1      37.127  22.933  25.158  0.00  0.00    +0.000 C 
ATOM     19  C   UNL     1      36.271  24.011  25.775  0.00  0.00    +0.000 C 
ENDBRANCH  17  19
ENDBRANCH  16  17
ENDBRANCH   1  16
TORSDOF 5
ENDMDL
MODEL 3
REMARK VINA RESULT:      -5.4     18.037     20.097
REMARK  Name = 
REMARK  5 active torsions:
REMARK  status: ('A' for Active; 'I' for Inactive)
REMARK    1  A    between atoms: C_2  and  C_3
REMARK    2  A    between atoms: C_3  and  C_4
REMARK    3  A    between atoms: C_4  and  C_5
REMARK    4  A    between atoms: C_8  and  C_9
REMARK    5  A    between atoms: C_14  and  C_15
REMARK                            x       y       z     vdW  Elec       q    Type
REMARK                         _______ _______ _______ _____ _____    ______ ____
ROOT
ATOM      1  C   UNL     1      23.065  26.288  27.187  0.00  0.00    +0.000 A 
ATOM      2  C   UNL     1      22.909  26.616  25.856  0.00  0.00    +0.000 A 
ATOM      3  C   UNL     1      23.915  26.412  24.914  0.00  0.00    +0.000 A 
ATOM      4  C   UNL     1      25.097  25.874  25.307  0.00  0.00    +0.000 A 
ATOM      5  C   UNL     1      25.279  25.539  26.626  0.00  0.00    +0.000 A 
ATOM      6  C   UNL     1      24.274  25.742  27.569  0.00  0.00    +0.000 A 
ENDROOT
BRANCH   4   7
ATOM      7  C   UNL     1      26.241  25.661  24.376  0.00  0.00    +0.000 A 
ATOM      8  C   UNL     1      27.083  26.732  24.180  0.00  0.00    +0.000 A 
ATOM      9  S   UNL     1      28.264  26.116  23.128  0.00  0.00    +0.000 S 
ATOM     10  C   UNL     1      27.673  24.531  22.958  0.00  0.00    +0.000 A 
ATOM     11  N   UNL     1      28.249  23.491  22.173  0.00  0.00    +0.000 NA
ATOM     12  C   UNL     1      26.543  24.520  23.744  0.00  0.00    +0.000 A 
BRANCH  12  13
ATOM     13  C   UNL     1      25.746  23.272  23.815  0.00  0.00    +0.000 C 
ATOM     14  N   UNL     1      25.036  22.737  22.719  0.00  0.00    +0.000 NA
ATOM     15  O   UNL     1      25.665  22.609  24.896  0.00  0.00    +0.000 OA
ENDBRANCH  12  13
ENDBRANCH   4   7
BRANCH   1  16
ATOM     16  C   UNL     1      22.025  26.488  28.212  0.00  0.00    +0.000 C 
BRANCH  16  17
ATOM     17  C   UNL     1      20.660  26.068  27.714  0.00  0.00    +0.000 C 
BRANCH  17  19
ATOM     18  C   UNL     1      18.692  25.216  28.890  0.00  0.00    +0.000 C 
ATOM     19  C   UNL     1      19.575  26.425  28.707  0.00  0.00    +0.000 C 
ENDBRANCH  17  19
ENDBRANCH  16  17
ENDBRANCH   1  16
TORSDOF 5
ENDMDL
MODEL 4
REMARK VINA RESULT:      -5.4     19.491     21.058
REMARK  Name = 
REMARK  5 active torsions:
REMARK  status: ('A' for Active; 'I' for Inactive)
REMARK    1  A    between atoms: C_2  and  C_3
REMARK    2  A    between atoms: C_3  and  C_4
REMARK    3  A    between atoms: C_4  and  C_5
REMARK    4  A    between atoms: C_8  and  C_9
REMARK    5  A    between atoms: C_14  and  C_15
REMARK                            x       y       z     vdW  Elec       q    Type
REMARK                         _______ _______ _______ _____ _____    ______ ____
ROOT
ATOM      1  C   UNL     1      30.568  22.624  28.504  0.00  0.00    +0.000 A 
ATOM      2  C   UNL     1      30.764  21.969  27.306  0.00  0.00    +0.000 A 
ATOM      3  C   UNL     1      29.934  22.165  26.205  0.00  0.00    +0.000 A 
ATOM      4  C   UNL     1      28.892  23.027  26.300  0.00  0.00    +0.000 A 
ATOM      5  C   UNL     1      28.674  23.692  27.482  0.00  0.00    +0.000 A 
ATOM      6  C   UNL     1      29.502  23.498  28.583  0.00  0.00    +0.000 A 
ENDROOT
BRANCH   4   7
ATOM      7  C   UNL     1      27.931  23.265  25.186  0.00  0.00    +0.000 A 
ATOM      8  C   UNL     1      26.657  22.770  25.356  0.00  0.00    +0.000 A 
ATOM      9  S   UNL     1      25.853  23.264  23.945  0.00  0.00    +0.000 S 
ATOM     10  C   UNL     1      27.132  24.079  23.176  0.00  0.00    +0.000 A 
ATOM     11  N   UNL     1      27.081  24.735  21.913  0.00  0.00    +0.000 NA
ATOM     12  C   UNL     1      28.179  23.943  24.058  0.00  0.00    +0.000 A 
BRANCH  12  13
ATOM     13  C   UNL     1      29.490  24.529  23.692  0.00  0.00    +0.000 C 
ATOM     14  N   UNL     1      29.856  25.862  23.977  0.00  0.00    +0.000 NA
ATOM     15  O   UNL     1      30.369  23.839  23.087  0.00  0.00    +0.000 OA
ENDBRANCH  12  13
ENDBRANCH   4   7
BRANCH   1  16
ATOM     16  C   UNL     1      31.423  22.444  29.691  0.00  0.00    +0.000 C 
BRANCH  16  17
ATOM     17  C   UNL     1      32.540  21.457  29.432  0.00  0.00    +0.000 C 
BRANCH  17  19
ATOM     18  C   UNL     1      34.160  23.220  28.930  0.00  0.00    +0.000 C 
ATOM     19  C   UNL     1      33.886  22.032  29.818  0.00  0.00    +0.000 C 
ENDBRANCH  17  19
ENDBRANCH  16  17
ENDBRANCH   1  16
TORSDOF 5
ENDMDL
MODEL 5
REMARK VINA RESULT:      -5.4     17.083     18.878
REMARK  Name = 
REMARK  5 active torsions:
REMARK  status: ('A' for Active; 'I' for Inactive)
REMARK    1  A    between atoms: C_2  and  C_3
REMARK    2  A    between atoms: C_3  and  C_4
REMARK    3  A    between atoms: C_4  and  C_5
REMARK    4  A    between atoms: C_8  and  C_9
REMARK    5  A    between atoms: C_14  and  C_15
REMARK                            x       y       z     vdW  Elec       q    Type
REMARK                         _______ _______ _______ _____ _____    ______ ____
ROOT
ATOM      1  C   UNL     1      33.655   1.367  34.396  0.00  0.00    +0.000 A 
ATOM      2  C   UNL     1      33.875   1.222  35.751  0.00  0.00    +0.000 A 
ATOM      3  C   UNL     1      34.076   2.313  36.594  0.00  0.00    +0.000 A 
ATOM      4  C   UNL     1      34.059   3.567  36.078  0.00  0.00    +0.000 A 
ATOM      5  C   UNL     1      33.842   3.739  34.733  0.00  0.00    +0.000 A 
ATOM      6  C   UNL     1      33.640   2.651  33.889  0.00  0.00    +0.000 A 
ENDROOT
BRANCH   4   7
ATOM      7  C   UNL     1      34.307   4.786  36.899  0.00  0.00    +0.000 A 
ATOM      8  C   UNL     1      33.203   5.375  37.475  0.00  0.00    +0.000 A 
ATOM      9  S   UNL     1      33.862   6.670  38.352  0.00  0.00    +0.000 S 
ATOM     10  C   UNL     1      35.504   6.444  37.975  0.00  0.00    +0.000 A 
ATOM     11  N   UNL     1      36.595   7.240  38.428  0.00  0.00    +0.000 NA
ATOM     12  C   UNL     1      35.499   5.338  37.156  0.00  0.00    +0.000 A 
BRANCH  12  13
ATOM     13  C   UNL     1      36.792   4.859  36.610  0.00  0.00    +0.000 C 
ATOM     14  N   UNL     1      37.703   4.070  37.344  0.00  0.00    +0.000 NA
ATOM     15  O   UNL     1      37.147   5.144  35.424  0.00  0.00    +0.000 OA
ENDBRANCH  12  13
ENDBRANCH   4   7
BRANCH   1  16
ATOM     16  C   UNL     1      33.437   0.240  33.472  0.00  0.00    +0.000 C 
BRANCH  16  17
ATOM     17  C   UNL     1      34.151  -1.011  33.936  0.00  0.00    +0.000 C 
BRANCH  17  19
ATOM     18  C   UNL     1      33.561  -3.264  33.189  0.00  0.00    +0.000 C 
ATOM     19  C   UNL     1      33.184  -2.156  34.141  0.00  0.00    +0.000 C 
ENDBRANCH  17  19
ENDBRANCH  16  17
ENDBRANCH   1  16
TORSDOF 5
ENDMDL
MODEL 6
REMARK VINA RESULT:      -5.4     17.226     18.554
REMARK  Name = 
REMARK  5 active torsions:
REMARK  status: ('A' for Active; 'I' for Inactive)
REMARK    1  A    between atoms: C_2  and  C_3
REMARK    2  A    between atoms: C_3  and  C_4
REMARK    3  A    between atoms: C_4  and  C_5
REMARK    4  A    between atoms: C_8  and  C_9
REMARK    5  A    between atoms: C_14  and  C_15
REMARK                            x       y       z     vdW  Elec       q    Type
REMARK                         _______ _______ _______ _____ _____    ______ ____
ROOT
ATOM      1  C   UNL     1      34.474   5.417  35.527  0.00  0.00    +0.000 A 
ATOM      2  C   UNL     1      35.820   5.526  35.243  0.00  0.00    +0.000 A 
ATOM      3  C   UNL     1      36.588   6.604  35.676  0.00  0.00    +0.000 A 
ATOM      4  C   UNL     1      36.005   7.589  36.402  0.00  0.00    +0.000 A 
ATOM      5  C   UNL     1      34.667   7.506  36.699  0.00  0.00    +0.000 A 
ATOM      6  C   UNL     1      33.897   6.429  36.267  0.00  0.00    +0.000 A 
ENDROOT
BRANCH   4   7
ATOM      7  C   UNL     1      36.742   8.798  36.870  0.00  0.00    +0.000 A 
ATOM      8  C   UNL     1      37.453   8.670  38.043  0.00  0.00    +0.000 A 
ATOM      9  S   UNL     1      38.182  10.191  38.227  0.00  0.00    +0.000 S 
ATOM     10  C   UNL     1      37.578  10.951  36.832  0.00  0.00    +0.000 A 
ATOM     11  N   UNL     1      37.841  12.288  36.414  0.00  0.00    +0.000 NA
ATOM     12  C   UNL     1      36.804   9.978  36.242  0.00  0.00    +0.000 A 
BRANCH  12  13
ATOM     13  C   UNL     1      36.092  10.310  34.985  0.00  0.00    +0.000 C 
ATOM     14  N   UNL     1      34.756  10.762  34.941  0.00  0.00    +0.000 NA
ATOM     15  O   UNL     1      36.670  10.201  33.858  0.00  0.00    +0.000 OA
ENDBRANCH  12  13
ENDBRANCH   4   7
BRANCH   1  16
ATOM     16  C   UNL     1      33.628   4.293  35.087  0.00  0.00    +0.000 C 
BRANCH  16  17
ATOM     17  C   UNL     1      33.242   4.419  33.630  0.00  0.00    +0.000 C 
BRANCH  17  19
ATOM     18  C   UNL     1      33.476   1.989  33.796  0.00  0.00    +0.000 C 
ATOM     19  C   UNL     1      33.587   3.164  32.857  0.00  0.00    +0.000 C 
ENDBRANCH  17  19
ENDBRANCH  16  17
ENDBRANCH   1  16
TORSDOF 5
ENDMDL
MODEL 7
REMARK VINA RESULT:      -5.2      3.605      6.152
REMARK  Name = 
REMARK  5 active torsions:
REMARK  status: ('A' for Active; 'I' for Inactive)
REMARK    1  A    between atoms: C_2  and  C_3
REMARK    2  A    between atoms: C_3  and  C_4
REMARK    3  A    between atoms: C_4  and  C_5
REMARK    4  A    between atoms: C_8  and  C_9
REMARK    5  A    between atoms: C_14  and  C_15
REMARK                            x       y       z     vdW  Elec       q    Type
REMARK                         _______ _______ _______ _____ _____    ______ ____
ROOT
ATOM      1  C   UNL     1      20.931  10.631  37.550  0.00  0.00    +0.000 A 
ATOM      2  C   UNL     1      20.126   9.656  36.997  0.00  0.00    +0.000 A 
ATOM      3  C   UNL     1      18.755   9.595  37.239  0.00  0.00    +0.000 A 
ATOM      4  C   UNL     1      18.179  10.521  38.045  0.00  0.00    +0.000 A 
ATOM      5  C   UNL     1      18.957  11.502  38.608  0.00  0.00    +0.000 A 
ATOM      6  C   UNL     1      20.327  11.565  38.368  0.00  0.00    +0.000 A 
ENDROOT
BRANCH   4   7
ATOM      7  C   UNL     1      16.729  10.507  38.390  0.00  0.00    +0.000 A 
ATOM      8  C   UNL     1      16.384   9.897  39.575  0.00  0.00    +0.000 A 
ATOM      9  S   UNL     1      14.703  10.115  39.654  0.00  0.00    +0.000 S 
ATOM     10  C   UNL     1      14.472  10.965  38.200  0.00  0.00    +0.000 A 
ATOM     11  N   UNL     1      13.233  11.446  37.687  0.00  0.00    +0.000 NA
ATOM     12  C   UNL     1      15.741  11.060  37.675  0.00  0.00    +0.000 A 
BRANCH  12  13
ATOM     13  C   UNL     1      15.914  11.739  36.369  0.00  0.00    +0.000 C 
ATOM     14  N   UNL     1      16.190  13.117  36.237  0.00  0.00    +0.000 NA
ATOM     15  O   UNL     1      15.822  11.093  35.279  0.00  0.00    +0.000 OA
ENDBRANCH  12  13
ENDBRANCH   4   7
BRANCH   1  16
ATOM     16  C   UNL     1      22.383  10.728  37.319  0.00  0.00    +0.000 C 
BRANCH  16  17
ATOM     17  C   UNL     1      22.861   9.701  36.317  0.00  0.00    +0.000 C 
BRANCH  17  19
ATOM     18  C   UNL     1      25.175  10.236  36.903  0.00  0.00    +0.000 C 
ATOM     19  C   UNL     1      24.216  10.068  35.751  0.00  0.00    +0.000 C 
ENDBRANCH  17  19
ENDBRANCH  16  17
ENDBRANCH   1  16
TORSDOF 5
ENDMDL
MODEL 8
REMARK VINA RESULT:      -5.1     18.694     19.649
REMARK  Name = 
REMARK  5 active torsions:
REMARK  status: ('A' for Active; 'I' for Inactive)
REMARK    1  A    between atoms: C_2  and  C_3
REMARK    2  A    between atoms: C_3  and  C_4
REMARK    3  A    between atoms: C_4  and  C_5
REMARK    4  A    between atoms: C_8  and  C_9
REMARK    5  A    between atoms: C_14  and  C_15
REMARK                            x       y       z     vdW  Elec       q    Type
REMARK                         _______ _______ _______ _____ _____    ______ ____
ROOT
ATOM      1  C   UNL     1      30.927  23.464  25.291  0.00  0.00    +0.000 A 
ATOM      2  C   UNL     1      31.817  24.120  26.116  0.00  0.00    +0.000 A 
ATOM      3  C   UNL     1      32.061  23.710  27.425  0.00  0.00    +0.000 A 
ATOM      4  C   UNL     1      31.407  22.630  27.919  0.00  0.00    +0.000 A 
ATOM      5  C   UNL     1      30.516  21.959  27.118  0.00  0.00    +0.000 A 
ATOM      6  C   UNL     1      30.270  22.366  25.810  0.00  0.00    +0.000 A 
ENDROOT
BRANCH   4   7
ATOM      7  C   UNL     1      31.577  22.148  29.319  0.00  0.00    +0.000 A 
ATOM      8  C   UNL     1      32.738  21.461  29.598  0.00  0.00    +0.000 A 
ATOM      9  S   UNL     1      32.606  21.123  31.256  0.00  0.00    +0.000 S 
ATOM     10  C   UNL     1      31.099  21.849  31.560  0.00  0.00    +0.000 A 
ATOM     11  N   UNL     1      30.421  21.902  32.812  0.00  0.00    +0.000 NA
ATOM     12  C   UNL     1      30.726  22.349  30.333  0.00  0.00    +0.000 A 
BRANCH  12  13
ATOM     13  C   UNL     1      29.422  23.045  30.222  0.00  0.00    +0.000 C 
ATOM     14  N   UNL     1      29.279  24.448  30.278  0.00  0.00    +0.000 NA
ATOM     15  O   UNL     1      28.343  22.392  30.067  0.00  0.00    +0.000 OA
ENDBRANCH  12  13
ENDBRANCH   4   7
BRANCH   1  16
ATOM     16  C   UNL     1      30.642  23.866  23.902  0.00  0.00    +0.000 C 
BRANCH  16  17
ATOM     17  C   UNL     1      29.195  24.268  23.722  0.00  0.00    +0.000 C 
BRANCH  17  19
ATOM     18  C   UNL     1      27.384  24.263  22.077  0.00  0.00    +0.000 C 
ATOM     19  C   UNL     1      28.525  23.451  22.638  0.00  0.00    +0.000 C 
ENDBRANCH  17  19
ENDBRANCH  16  17
ENDBRANCH   1  16
TORSDOF 5
ENDMDL
MODEL 9
REMARK VINA RESULT:      -5.1     21.619     22.918
REMARK  Name = 
REMARK  5 active torsions:
REMARK  status: ('A' for Active; 'I' for Inactive)
REMARK    1  A    between atoms: C_2  and  C_3
REMARK    2  A    between atoms: C_3  and  C_4
REMARK    3  A    between atoms: C_4  and  C_5
REMARK    4  A    between atoms: C_8  and  C_9
REMARK    5  A    between atoms: C_14  and  C_15
REMARK                            x       y       z     vdW  Elec       q    Type
REMARK                         _______ _______ _______ _____ _____    ______ ____
ROOT
ATOM      1  C   UNL     1      24.533   3.339  18.003  0.00  0.00    +0.000 A 
ATOM      2  C   UNL     1      24.359   4.703  18.113  0.00  0.00    +0.000 A 
ATOM      3  C   UNL     1      25.302   5.615  17.645  0.00  0.00    +0.000 A 
ATOM      4  C   UNL     1      26.437   5.159  17.060  0.00  0.00    +0.000 A 
ATOM      5  C   UNL     1      26.636   3.806  16.938  0.00  0.00    +0.000 A 
ATOM      6  C   UNL     1      25.694   2.893  17.405  0.00  0.00    +0.000 A 
ENDROOT
BRANCH   4   7
ATOM      7  C   UNL     1      27.517   6.062  16.569  0.00  0.00    +0.000 A 
ATOM      8  C   UNL     1      28.557   6.307  17.438  0.00  0.00    +0.000 A 
ATOM      9  S   UNL     1      29.592   7.308  16.540  0.00  0.00    +0.000 S 
ATOM     10  C   UNL     1      28.697   7.396  15.097  0.00  0.00    +0.000 A 
ATOM     11  N   UNL     1      29.055   8.114  13.920  0.00  0.00    +0.000 NA
ATOM     12  C   UNL     1      27.587   6.625  15.357  0.00  0.00    +0.000 A 
BRANCH  12  13
ATOM     13  C   UNL     1      26.557   6.494  14.299  0.00  0.00    +0.000 C 
ATOM     14  N   UNL     1      26.453   5.376  13.445  0.00  0.00    +0.000 NA
ATOM     15  O   UNL     1      25.695   7.409  14.109  0.00  0.00    +0.000 OA
ENDBRANCH  12  13
ENDBRANCH   4   7
BRANCH   1  16
ATOM     16  C   UNL     1      23.559   2.343  18.485  0.00  0.00    +0.000 C 
BRANCH  16  17
ATOM     17  C   UNL     1      22.149   2.684  18.054  0.00  0.00    +0.000 C 
BRANCH  17  19
ATOM     18  C   UNL     1      22.345   0.453  17.070  0.00  0.00    +0.000 C 
ATOM     19  C   UNL     1      21.375   1.444  17.665  0.00  0.00    +0.000 C 
ENDBRANCH  17  19
ENDBRANCH  16  17
ENDBRANCH   1  16
TORSDOF 5
ENDMDL
MODEL 10
REMARK VINA RESULT:      -5.1      4.154      6.085
REMARK  Name = 
REMARK  5 active torsions:
REMARK  status: ('A' for Active; 'I' for Inactive)
REMARK    1  A    between atoms: C_2  and  C_3
REMARK    2  A    between atoms: C_3  and  C_4
REMARK    3  A    between atoms: C_4  and  C_5
REMARK    4  A    between atoms: C_8  and  C_9
REMARK    5  A    between atoms: C_14  and  C_15
REMARK                            x       y       z     vdW  Elec       q    Type
REMARK                         _______ _______ _______ _____ _____    ______ ____
ROOT
ATOM      1  C   UNL     1      17.792   9.869  39.331  0.00  0.00    +0.000 A 
ATOM      2  C   UNL     1      17.927  10.663  38.211  0.00  0.00    +0.000 A 
ATOM      3  C   UNL     1      19.157  10.877  37.593  0.00  0.00    +0.000 A 
ATOM      4  C   UNL     1      20.270  10.291  38.101  0.00  0.00    +0.000 A 
ATOM      5  C   UNL     1      20.163   9.495  39.215  0.00  0.00    +0.000 A 
ATOM      6  C   UNL     1      18.935   9.280  39.834  0.00  0.00    +0.000 A 
ENDROOT
BRANCH   4   7
ATOM      7  C   UNL     1      21.630  10.499  37.529  0.00  0.00    +0.000 A 
ATOM      8  C   UNL     1      22.018   9.631  36.531  0.00  0.00    +0.000 A 
ATOM      9  S   UNL     1      23.561  10.192  36.101  0.00  0.00    +0.000 S 
ATOM     10  C   UNL     1      23.684  11.499  37.181  0.00  0.00    +0.000 A 
ATOM     11  N   UNL     1      24.787  12.392  37.309  0.00  0.00    +0.000 NA
ATOM     12  C   UNL     1      22.491  11.466  37.868  0.00  0.00    +0.000 A 
BRANCH  12  13
ATOM     13  C   UNL     1      22.260  12.475  38.928  0.00  0.00    +0.000 C 
ATOM     14  N   UNL     1      22.673  12.307  40.268  0.00  0.00    +0.000 NA
ATOM     15  O   UNL     1      21.665  13.568  38.673  0.00  0.00    +0.000 OA
ENDBRANCH  12  13
ENDBRANCH   4   7
BRANCH   1  16
ATOM     16  C   UNL     1      16.510   9.618  40.013  0.00  0.00    +0.000 C 
BRANCH  16  17
ATOM     17  C   UNL     1      16.714   9.050  41.400  0.00  0.00    +0.000 C 
BRANCH  17  19
ATOM     18  C   UNL     1      16.840   6.615  41.201  0.00  0.00    +0.000 C 
ATOM     19  C   UNL     1      15.942   7.763  41.590  0.00  0.00    +0.000 C 
ENDBRANCH  17  19
ENDBRANCH  16  17
ENDBRANCH   1  16
TORSDOF 5
ENDMDL
