MODEL 1
REMARK VINA RESULT:      -6.6      0.000      0.000
REMARK  Name = 
REMARK  3 active torsions:
REMARK  status: ('A' for Active; 'I' for Inactive)
REMARK    1  A    between atoms: C_2  and  C_4
REMARK    2  A    between atoms: C_2  and  C_12
REMARK    3  A    between atoms: C_12  and  C_15
REMARK                            x       y       z     vdW  Elec       q    Type
REMARK                         _______ _______ _______ _____ _____    ______ ____
ROOT
ATOM      1  C   UNL     1      31.385  20.058  11.577  0.00  0.00    +0.000 C 
ATOM      2  C   UNL     1      30.549  20.869  10.631  0.00  0.00    +0.000 C 
ATOM      3  C   UNL     1      29.532  19.977   9.906  0.00  0.00    +0.000 C 
ENDROOT
BRANCH   2   4
ATOM      4  C   UNL     1      29.727  21.786  11.462  0.00  0.00    +0.000 A 
ATOM      5  C   UNL     1      28.425  22.010  11.102  0.00  0.00    +0.000 A 
ATOM      6  C   UNL     1      27.676  22.864  11.883  0.00  0.00    +0.000 A 
ATOM      7  C   UNL     1      28.202  23.470  12.981  0.00  0.00    +0.000 A 
ATOM      8  O   UNL     1      27.454  24.345  13.792  0.00  0.00    +0.000 OA
ATOM      9  C   UNL     1      29.508  23.256  13.356  0.00  0.00    +0.000 A 
ATOM     10  C   UNL     1      30.266  22.391  12.563  0.00  0.00    +0.000 A 
ATOM     11  F   UNL     1      31.546  22.149  12.890  0.00  0.00    +0.000 F 
ENDBRANCH   2   4
BRANCH   2  12
ATOM     12  C   UNL     1      31.386  21.619   9.650  0.00  0.00    +0.000 C 
ATOM     13  C   UNL     1      30.907  23.081   9.547  0.00  0.00    +0.000 C 
ATOM     14  C   UNL     1      31.072  21.044   8.264  0.00  0.00    +0.000 C 
BRANCH  12  15
ATOM     15  C   UNL     1      32.829  21.629   9.862  0.00  0.00    +0.000 A 
ATOM     16  C   UNL     1      33.403  22.815  10.358  0.00  0.00    +0.000 A 
ATOM     17  C   UNL     1      34.741  22.960  10.570  0.00  0.00    +0.000 A 
ATOM     18  C   UNL     1      35.599  21.916  10.298  0.00  0.00    +0.000 A 
ATOM     19  O   UNL     1      36.972  22.086  10.524  0.00  0.00    +0.000 OA
ATOM     20  C   UNL     1      35.081  20.747   9.816  0.00  0.00    +0.000 A 
ATOM     21  C   UNL     1      33.714  20.625   9.610  0.00  0.00    +0.000 A 
ATOM     22  F   UNL     1      33.232  19.419   9.153  0.00  0.00    +0.000 F 
ENDBRANCH  12  15
ENDBRANCH   2  12
TORSDOF 3
ENDMDL
MODEL 2
REMARK VINA RESULT:      -6.4     12.936     16.501
REMARK  Name = 
REMARK  3 active torsions:
REMARK  status: ('A' for Active; 'I' for Inactive)
REMARK    1  A    between atoms: C_2  and  C_4
REMARK    2  A    between atoms: C_2  and  C_12
REMARK    3  A    between atoms: C_12  and  C_15
REMARK                            x       y       z     vdW  Elec       q    Type
REMARK                         _______ _______ _______ _____ _____    ______ ____
ROOT
ATOM      1  C   UNL     1      27.778  26.538  26.181  0.00  0.00    +0.000 C 
ATOM      2  C   UNL     1      26.790  26.275  25.083  0.00  0.00    +0.000 C 
ATOM      3  C   UNL     1      26.140  27.583  24.613  0.00  0.00    +0.000 C 
ENDROOT
BRANCH   2   4
ATOM      4  C   UNL     1      27.567  25.792  23.912  0.00  0.00    +0.000 A 
ATOM      5  C   UNL     1      27.194  26.206  22.661  0.00  0.00    +0.000 A 
ATOM      6  C   UNL     1      27.926  25.749  21.585  0.00  0.00    +0.000 A 
ATOM      7  C   UNL     1      28.986  24.915  21.748  0.00  0.00    +0.000 A 
ATOM      8  O   UNL     1      29.746  24.438  20.662  0.00  0.00    +0.000 OA
ATOM      9  C   UNL     1      29.373  24.490  22.998  0.00  0.00    +0.000 A 
ATOM     10  C   UNL     1      28.632  24.953  24.087  0.00  0.00    +0.000 A 
ATOM     11  F   UNL     1      28.972  24.567  25.327  0.00  0.00    +0.000 F 
ENDBRANCH   2   4
BRANCH   2  12
ATOM     12  C   UNL     1      25.750  25.288  25.495  0.00  0.00    +0.000 C 
ATOM     13  C   UNL     1      25.689  24.124  24.486  0.00  0.00    +0.000 C 
ATOM     14  C   UNL     1      24.390  25.975  25.326  0.00  0.00    +0.000 C 
BRANCH  12  15
ATOM     15  C   UNL     1      25.850  24.721  26.836  0.00  0.00    +0.000 A 
ATOM     16  C   UNL     1      25.247  25.436  27.887  0.00  0.00    +0.000 A 
ATOM     17  C   UNL     1      25.296  25.027  29.186  0.00  0.00    +0.000 A 
ATOM     18  C   UNL     1      25.958  23.865  29.519  0.00  0.00    +0.000 A 
ATOM     19  O   UNL     1      25.997  23.463  30.862  0.00  0.00    +0.000 OA
ATOM     20  C   UNL     1      26.557  23.142  28.526  0.00  0.00    +0.000 A 
ATOM     21  C   UNL     1      26.491  23.580  27.211  0.00  0.00    +0.000 A 
ATOM     22  F   UNL     1      27.081  22.803  26.238  0.00  0.00    +0.000 F 
ENDBRANCH  12  15
ENDBRANCH   2  12
TORSDOF 3
ENDMDL
MODEL 3
REMARK VINA RESULT:      -6.4     12.895     15.809
REMARK  Name = 
REMARK  3 active torsions:
REMARK  status: ('A' for Active; 'I' for Inactive)
REMARK    1  A    between atoms: C_2  and  C_4
REMARK    2  A    between atoms: C_2  and  C_12
REMARK    3  A    between atoms: C_12  and  C_15
REMARK                            x       y       z     vdW  Elec       q    Type
REMARK                         _______ _______ _______ _____ _____    ______ ____
ROOT
ATOM      1  C   UNL     1      25.878  23.654  24.680  0.00  0.00    +0.000 C 
ATOM      2  C   UNL     1      25.804  24.926  25.473  0.00  0.00    +0.000 C 
ATOM      3  C   UNL     1      24.429  25.589  25.308  0.00  0.00    +0.000 C 
ENDROOT
BRANCH   2   4
ATOM      4  C   UNL     1      25.873  24.544  26.907  0.00  0.00    +0.000 A 
ATOM      5  C   UNL     1      25.169  25.284  27.819  0.00  0.00    +0.000 A 
ATOM      6  C   UNL     1      25.245  24.916  29.145  0.00  0.00    +0.000 A 
ATOM      7  C   UNL     1      25.990  23.854  29.548  0.00  0.00    +0.000 A 
ATOM      8  O   UNL     1      26.080  23.462  30.898  0.00  0.00    +0.000 OA
ATOM      9  C   UNL     1      26.704  23.100  28.644  0.00  0.00    +0.000 A 
ATOM     10  C   UNL     1      26.627  23.474  27.301  0.00  0.00    +0.000 A 
ATOM     11  F   UNL     1      27.305  22.768  26.381  0.00  0.00    +0.000 F 
ENDBRANCH   2   4
BRANCH   2  12
ATOM     12  C   UNL     1      26.894  25.876  25.104  0.00  0.00    +0.000 C 
ATOM     13  C   UNL     1      27.833  26.103  26.306  0.00  0.00    +0.000 C 
ATOM     14  C   UNL     1      26.241  27.248  24.899  0.00  0.00    +0.000 C 
BRANCH  12  15
ATOM     15  C   UNL     1      27.715  25.544  23.944  0.00  0.00    +0.000 A 
ATOM     16  C   UNL     1      27.346  26.108  22.708  0.00  0.00    +0.000 A 
ATOM     17  C   UNL     1      28.013  25.853  21.548  0.00  0.00    +0.000 A 
ATOM     18  C   UNL     1      29.103  25.009  21.551  0.00  0.00    +0.000 A 
ATOM     19  O   UNL     1      29.775  24.760  20.345  0.00  0.00    +0.000 OA
ATOM     20  C   UNL     1      29.494  24.442  22.731  0.00  0.00    +0.000 A 
ATOM     21  C   UNL     1      28.797  24.720  23.899  0.00  0.00    +0.000 A 
ATOM     22  F   UNL     1      29.244  24.152  25.071  0.00  0.00    +0.000 F 
ENDBRANCH  12  15
ENDBRANCH   2  12
TORSDOF 3
ENDMDL
MODEL 4
REMARK VINA RESULT:      -6.4     13.951     17.215
REMARK  Name = 
REMARK  3 active torsions:
REMARK  status: ('A' for Active; 'I' for Inactive)
REMARK    1  A    between atoms: C_2  and  C_4
REMARK    2  A    between atoms: C_2  and  C_12
REMARK    3  A    between atoms: C_12  and  C_15
REMARK                            x       y       z     vdW  Elec       q    Type
REMARK                         _______ _______ _______ _____ _____    ______ ____
ROOT
ATOM      1  C   UNL     1      30.172  21.928  26.941  0.00  0.00    +0.000 C 
ATOM      2  C   UNL     1      30.326  23.401  26.700  0.00  0.00    +0.000 C 
ATOM      3  C   UNL     1      31.805  23.809  26.757  0.00  0.00    +0.000 C 
ENDROOT
BRANCH   2   4
ATOM      4  C   UNL     1      29.915  23.653  25.295  0.00  0.00    +0.000 A 
ATOM      5  C   UNL     1      30.678  24.491  24.527  0.00  0.00    +0.000 A 
ATOM      6  C   UNL     1      30.283  24.714  23.225  0.00  0.00    +0.000 A 
ATOM      7  C   UNL     1      29.172  24.124  22.708  0.00  0.00    +0.000 A 
ATOM      8  O   UNL     1      28.752  24.339  21.381  0.00  0.00    +0.000 OA
ATOM      9  C   UNL     1      28.395  23.281  23.466  0.00  0.00    +0.000 A 
ATOM     10  C   UNL     1      28.796  23.056  24.785  0.00  0.00    +0.000 A 
ATOM     11  F   UNL     1      28.069  22.238  25.564  0.00  0.00    +0.000 F 
ENDBRANCH   2   4
BRANCH   2  12
ATOM     12  C   UNL     1      29.519  24.210  27.661  0.00  0.00    +0.000 C 
ATOM     13  C   UNL     1      28.677  25.255  26.903  0.00  0.00    +0.000 C 
ATOM     14  C   UNL     1      30.507  25.064  28.465  0.00  0.00    +0.000 C 
BRANCH  12  15
ATOM     15  C   UNL     1      28.636  23.491  28.573  0.00  0.00    +0.000 A 
ATOM     16  C   UNL     1      27.256  23.531  28.303  0.00  0.00    +0.000 A 
ATOM     17  C   UNL     1      26.327  22.925  29.096  0.00  0.00    +0.000 A 
ATOM     18  C   UNL     1      26.725  22.235  30.220  0.00  0.00    +0.000 A 
ATOM     19  O   UNL     1      25.753  21.619  31.021  0.00  0.00    +0.000 OA
ATOM     20  C   UNL     1      28.057  22.172  30.516  0.00  0.00    +0.000 A 
ATOM     21  C   UNL     1      28.983  22.797  29.692  0.00  0.00    +0.000 A 
ATOM     22  F   UNL     1      30.317  22.682  30.012  0.00  0.00    +0.000 F 
ENDBRANCH  12  15
ENDBRANCH   2  12
TORSDOF 3
ENDMDL
MODEL 5
REMARK VINA RESULT:      -6.3     12.062     15.132
REMARK  Name = 
REMARK  3 active torsions:
REMARK  status: ('A' for Active; 'I' for Inactive)
REMARK    1  A    between atoms: C_2  and  C_4
REMARK    2  A    between atoms: C_2  and  C_12
REMARK    3  A    between atoms: C_12  and  C_15
REMARK                            x       y       z     vdW  Elec       q    Type
REMARK                         _______ _______ _______ _____ _____    ______ ____
ROOT
ATOM      1  C   UNL     1      26.677  23.416  27.252  0.00  0.00    +0.000 C 
ATOM      2  C   UNL     1      27.104  24.534  26.347  0.00  0.00    +0.000 C 
ATOM      3  C   UNL     1      26.834  25.896  27.002  0.00  0.00    +0.000 C 
ENDROOT
BRANCH   2   4
ATOM      4  C   UNL     1      28.583  24.453  26.231  0.00  0.00    +0.000 A 
ATOM      5  C   UNL     1      29.311  25.611  26.298  0.00  0.00    +0.000 A 
ATOM      6  C   UNL     1      30.683  25.518  26.189  0.00  0.00    +0.000 A 
ATOM      7  C   UNL     1      31.304  24.321  26.022  0.00  0.00    +0.000 A 
ATOM      8  O   UNL     1      32.703  24.205  25.908  0.00  0.00    +0.000 OA
ATOM      9  C   UNL     1      30.587  23.149  25.952  0.00  0.00    +0.000 A 
ATOM     10  C   UNL     1      29.198  23.244  26.062  0.00  0.00    +0.000 A 
ATOM     11  F   UNL     1      28.454  22.127  26.002  0.00  0.00    +0.000 F 
ENDBRANCH   2   4
BRANCH   2  12
ATOM     12  C   UNL     1      26.444  24.452  25.011  0.00  0.00    +0.000 C 
ATOM     13  C   UNL     1      25.253  25.430  24.944  0.00  0.00    +0.000 C 
ATOM     14  C   UNL     1      25.777  23.074  24.927  0.00  0.00    +0.000 C 
BRANCH  12  15
ATOM     15  C   UNL     1      27.276  24.669  23.832  0.00  0.00    +0.000 A 
ATOM     16  C   UNL     1      27.668  23.533  23.100  0.00  0.00    +0.000 A 
ATOM     17  C   UNL     1      28.467  23.600  21.998  0.00  0.00    +0.000 A 
ATOM     18  C   UNL     1      28.930  24.821  21.556  0.00  0.00    +0.000 A 
ATOM     19  O   UNL     1      29.752  24.867  20.420  0.00  0.00    +0.000 OA
ATOM     20  C   UNL     1      28.570  25.948  22.239  0.00  0.00    +0.000 A 
ATOM     21  C   UNL     1      27.754  25.851  23.357  0.00  0.00    +0.000 A 
ATOM     22  F   UNL     1      27.391  27.016  23.998  0.00  0.00    +0.000 F 
ENDBRANCH  12  15
ENDBRANCH   2  12
TORSDOF 3
ENDMDL
MODEL 6
REMARK VINA RESULT:      -6.3     12.161     15.084
REMARK  Name = 
REMARK  3 active torsions:
REMARK  status: ('A' for Active; 'I' for Inactive)
REMARK    1  A    between atoms: C_2  and  C_4
REMARK    2  A    between atoms: C_2  and  C_12
REMARK    3  A    between atoms: C_12  and  C_15
REMARK                            x       y       z     vdW  Elec       q    Type
REMARK                         _______ _______ _______ _____ _____    ______ ____
ROOT
ATOM      1  C   UNL     1      25.279  25.514  24.872  0.00  0.00    +0.000 C 
ATOM      2  C   UNL     1      26.323  24.449  25.037  0.00  0.00    +0.000 C 
ATOM      3  C   UNL     1      25.694  23.052  24.939  0.00  0.00    +0.000 C 
ENDROOT
BRANCH   2   4
ATOM      4  C   UNL     1      27.225  24.545  23.860  0.00  0.00    +0.000 A 
ATOM      5  C   UNL     1      27.641  23.389  23.255  0.00  0.00    +0.000 A 
ATOM      6  C   UNL     1      28.478  23.496  22.164  0.00  0.00    +0.000 A 
ATOM      7  C   UNL     1      28.882  24.705  21.694  0.00  0.00    +0.000 A 
ATOM      8  O   UNL     1      29.736  24.835  20.581  0.00  0.00    +0.000 OA
ATOM      9  C   UNL     1      28.474  25.875  22.290  0.00  0.00    +0.000 A 
ATOM     10  C   UNL     1      27.627  25.766  23.396  0.00  0.00    +0.000 A 
ATOM     11  F   UNL     1      27.200  26.881  24.011  0.00  0.00    +0.000 F 
ENDBRANCH   2   4
BRANCH   2  12
ATOM     12  C   UNL     1      27.075  24.600  26.318  0.00  0.00    +0.000 C 
ATOM     13  C   UNL     1      26.479  23.675  27.398  0.00  0.00    +0.000 C 
ATOM     14  C   UNL     1      26.773  26.006  26.849  0.00  0.00    +0.000 C 
BRANCH  12  15
ATOM     15  C   UNL     1      28.517  24.387  26.283  0.00  0.00    +0.000 A 
ATOM     16  C   UNL     1      29.341  25.528  26.314  0.00  0.00    +0.000 A 
ATOM     17  C   UNL     1      30.701  25.463  26.258  0.00  0.00    +0.000 A 
ATOM     18  C   UNL     1      31.329  24.239  26.167  0.00  0.00    +0.000 A 
ATOM     19  O   UNL     1      32.730  24.195  26.110  0.00  0.00    +0.000 OA
ATOM     20  C   UNL     1      30.564  23.107  26.135  0.00  0.00    +0.000 A 
ATOM     21  C   UNL     1      29.181  23.202  26.195  0.00  0.00    +0.000 A 
ATOM     22  F   UNL     1      28.451  22.034  26.191  0.00  0.00    +0.000 F 
ENDBRANCH  12  15
ENDBRANCH   2  12
TORSDOF 3
ENDMDL
MODEL 7
REMARK VINA RESULT:      -6.3     13.097     16.489
REMARK  Name = 
REMARK  3 active torsions:
REMARK  status: ('A' for Active; 'I' for Inactive)
REMARK    1  A    between atoms: C_2  and  C_4
REMARK    2  A    between atoms: C_2  and  C_12
REMARK    3  A    between atoms: C_12  and  C_15
REMARK                            x       y       z     vdW  Elec       q    Type
REMARK                         _______ _______ _______ _____ _____    ______ ____
ROOT
ATOM      1  C   UNL     1      25.178  25.259  24.767  0.00  0.00    +0.000 C 
ATOM      2  C   UNL     1      26.421  24.473  25.065  0.00  0.00    +0.000 C 
ATOM      3  C   UNL     1      26.095  22.981  25.222  0.00  0.00    +0.000 C 
ENDROOT
BRANCH   2   4
ATOM      4  C   UNL     1      27.280  24.551  23.856  0.00  0.00    +0.000 A 
ATOM      5  C   UNL     1      27.980  23.438  23.475  0.00  0.00    +0.000 A 
ATOM      6  C   UNL     1      28.773  23.527  22.350  0.00  0.00    +0.000 A 
ATOM      7  C   UNL     1      28.864  24.678  21.633  0.00  0.00    +0.000 A 
ATOM      8  O   UNL     1      29.668  24.790  20.482  0.00  0.00    +0.000 OA
ATOM      9  C   UNL     1      28.167  25.805  22.003  0.00  0.00    +0.000 A 
ATOM     10  C   UNL     1      27.365  25.714  23.143  0.00  0.00    +0.000 A 
ATOM     11  F   UNL     1      26.665  26.788  23.543  0.00  0.00    +0.000 F 
ENDBRANCH   2   4
BRANCH   2  12
ATOM     12  C   UNL     1      27.127  24.988  26.275  0.00  0.00    +0.000 C 
ATOM     13  C   UNL     1      26.604  26.391  26.641  0.00  0.00    +0.000 C 
ATOM     14  C   UNL     1      28.582  25.247  25.865  0.00  0.00    +0.000 C 
BRANCH  12  15
ATOM     15  C   UNL     1      27.095  24.163  27.478  0.00  0.00    +0.000 A 
ATOM     16  C   UNL     1      28.281  23.494  27.836  0.00  0.00    +0.000 A 
ATOM     17  C   UNL     1      28.370  22.672  28.919  0.00  0.00    +0.000 A 
ATOM     18  C   UNL     1      27.269  22.466  29.721  0.00  0.00    +0.000 A 
ATOM     19  O   UNL     1      27.383  21.616  30.831  0.00  0.00    +0.000 OA
ATOM     20  C   UNL     1      26.099  23.099  29.408  0.00  0.00    +0.000 A 
ATOM     21  C   UNL     1      26.035  23.932  28.299  0.00  0.00    +0.000 A 
ATOM     22  F   UNL     1      24.844  24.573  28.039  0.00  0.00    +0.000 F 
ENDBRANCH  12  15
ENDBRANCH   2  12
TORSDOF 3
ENDMDL
MODEL 8
REMARK VINA RESULT:      -6.3     13.206     15.041
REMARK  Name = 
REMARK  3 active torsions:
REMARK  status: ('A' for Active; 'I' for Inactive)
REMARK    1  A    between atoms: C_2  and  C_4
REMARK    2  A    between atoms: C_2  and  C_12
REMARK    3  A    between atoms: C_12  and  C_15
REMARK                            x       y       z     vdW  Elec       q    Type
REMARK                         _______ _______ _______ _____ _____    ______ ____
ROOT
ATOM      1  C   UNL     1      29.635  25.522  25.920  0.00  0.00    +0.000 C 
ATOM      2  C   UNL     1      29.276  24.080  26.128  0.00  0.00    +0.000 C 
ATOM      3  C   UNL     1      28.621  23.877  27.501  0.00  0.00    +0.000 C 
ENDROOT
BRANCH   2   4
ATOM      4  C   UNL     1      28.210  23.757  25.145  0.00  0.00    +0.000 A 
ATOM      5  C   UNL     1      27.114  23.056  25.572  0.00  0.00    +0.000 A 
ATOM      6  C   UNL     1      26.134  22.763  24.647  0.00  0.00    +0.000 A 
ATOM      7  C   UNL     1      26.240  23.155  23.350  0.00  0.00    +0.000 A 
ATOM      8  O   UNL     1      25.250  22.866  22.391  0.00  0.00    +0.000 OA
ATOM      9  C   UNL     1      27.335  23.859  22.905  0.00  0.00    +0.000 A 
ATOM     10  C   UNL     1      28.327  24.154  23.843  0.00  0.00    +0.000 A 
ATOM     11  F   UNL     1      29.415  24.841  23.456  0.00  0.00    +0.000 F 
ENDBRANCH   2   4
BRANCH   2  12
ATOM     12  C   UNL     1      30.458  23.184  25.970  0.00  0.00    +0.000 C 
ATOM     13  C   UNL     1      30.327  22.350  24.680  0.00  0.00    +0.000 C 
ATOM     14  C   UNL     1      30.373  22.131  27.082  0.00  0.00    +0.000 C 
BRANCH  12  15
ATOM     15  C   UNL     1      31.780  23.801  25.979  0.00  0.00    +0.000 A 
ATOM     16  C   UNL     1      32.472  23.866  24.755  0.00  0.00    +0.000 A 
ATOM     17  C   UNL     1      33.724  24.391  24.638  0.00  0.00    +0.000 A 
ATOM     18  C   UNL     1      34.369  24.890  25.749  0.00  0.00    +0.000 A 
ATOM     19  O   UNL     1      35.657  25.426  25.606  0.00  0.00    +0.000 OA
ATOM     20  C   UNL     1      33.730  24.847  26.956  0.00  0.00    +0.000 A 
ATOM     21  C   UNL     1      32.455  24.307  27.048  0.00  0.00    +0.000 A 
ATOM     22  F   UNL     1      31.835  24.312  28.278  0.00  0.00    +0.000 F 
ENDBRANCH  12  15
ENDBRANCH   2  12
TORSDOF 3
ENDMDL
MODEL 9
REMARK VINA RESULT:      -6.3     11.481     14.292
REMARK  Name = 
REMARK  3 active torsions:
REMARK  status: ('A' for Active; 'I' for Inactive)
REMARK    1  A    between atoms: C_2  and  C_4
REMARK    2  A    between atoms: C_2  and  C_12
REMARK    3  A    between atoms: C_12  and  C_15
REMARK                            x       y       z     vdW  Elec       q    Type
REMARK                         _______ _______ _______ _____ _____    ______ ____
ROOT
ATOM      1  C   UNL     1      26.871  26.100  25.246  0.00  0.00    +0.000 C 
ATOM      2  C   UNL     1      27.415  24.787  24.764  0.00  0.00    +0.000 C 
ATOM      3  C   UNL     1      26.275  23.807  24.457  0.00  0.00    +0.000 C 
ENDROOT
BRANCH   2   4
ATOM      4  C   UNL     1      28.059  25.045  23.450  0.00  0.00    +0.000 A 
ATOM      5  C   UNL     1      28.380  26.335  23.117  0.00  0.00    +0.000 A 
ATOM      6  C   UNL     1      28.977  26.556  21.894  0.00  0.00    +0.000 A 
ATOM      7  C   UNL     1      29.245  25.536  21.038  0.00  0.00    +0.000 A 
ATOM      8  O   UNL     1      29.854  25.742  19.784  0.00  0.00    +0.000 OA
ATOM      9  C   UNL     1      28.928  24.236  21.356  0.00  0.00    +0.000 A 
ATOM     10  C   UNL     1      28.323  24.012  22.595  0.00  0.00    +0.000 A 
ATOM     11  F   UNL     1      27.996  22.759  22.951  0.00  0.00    +0.000 F 
ENDBRANCH   2   4
BRANCH   2  12
ATOM     12  C   UNL     1      28.376  24.191  25.738  0.00  0.00    +0.000 C 
ATOM     13  C   UNL     1      28.030  22.709  25.988  0.00  0.00    +0.000 C 
ATOM     14  C   UNL     1      28.104  24.853  27.094  0.00  0.00    +0.000 C 
BRANCH  12  15
ATOM     15  C   UNL     1      29.798  24.279  25.425  0.00  0.00    +0.000 A 
ATOM     16  C   UNL     1      30.434  23.108  24.972  0.00  0.00    +0.000 A 
ATOM     17  C   UNL     1      31.763  23.054  24.675  0.00  0.00    +0.000 A 
ATOM     18  C   UNL     1      32.547  24.179  24.813  0.00  0.00    +0.000 A 
ATOM     19  O   UNL     1      33.912  24.101  24.502  0.00  0.00    +0.000 OA
ATOM     20  C   UNL     1      31.966  25.336  25.249  0.00  0.00    +0.000 A 
ATOM     21  C   UNL     1      30.610  25.365  25.544  0.00  0.00    +0.000 A 
ATOM     22  F   UNL     1      30.060  26.560  25.950  0.00  0.00    +0.000 F 
ENDBRANCH  12  15
ENDBRANCH   2  12
TORSDOF 3
ENDMDL
MODEL 10
REMARK VINA RESULT:      -6.3     12.716     15.399
REMARK  Name = 
REMARK  3 active torsions:
REMARK  status: ('A' for Active; 'I' for Inactive)
REMARK    1  A    between atoms: C_2  and  C_4
REMARK    2  A    between atoms: C_2  and  C_12
REMARK    3  A    between atoms: C_12  and  C_15
REMARK                            x       y       z     vdW  Elec       q    Type
REMARK                         _______ _______ _______ _____ _____    ______ ____
ROOT
ATOM      1  C   UNL     1      30.458  25.873  24.431  0.00  0.00    +0.000 C 
ATOM      2  C   UNL     1      29.918  24.683  25.169  0.00  0.00    +0.000 C 
ATOM      3  C   UNL     1      29.353  25.102  26.534  0.00  0.00    +0.000 C 
ENDROOT
BRANCH   2   4
ATOM      4  C   UNL     1      28.741  24.199  24.401  0.00  0.00    +0.000 A 
ATOM      5  C   UNL     1      27.644  23.756  25.092  0.00  0.00    +0.000 A 
ATOM      6  C   UNL     1      26.561  23.310  24.364  0.00  0.00    +0.000 A 
ATOM      7  C   UNL     1      26.569  23.307  23.005  0.00  0.00    +0.000 A 
ATOM      8  O   UNL     1      25.473  22.855  22.244  0.00  0.00    +0.000 OA
ATOM      9  C   UNL     1      27.663  23.748  22.297  0.00  0.00    +0.000 A 
ATOM     10  C   UNL     1      28.760  24.199  23.035  0.00  0.00    +0.000 A 
ATOM     11  F   UNL     1      29.851  24.642  22.388  0.00  0.00    +0.000 F 
ENDBRANCH   2   4
BRANCH   2  12
ATOM     12  C   UNL     1      30.946  23.614  25.329  0.00  0.00    +0.000 C 
ATOM     13  C   UNL     1      32.201  23.951  24.499  0.00  0.00    +0.000 C 
ATOM     14  C   UNL     1      30.395  22.358  24.644  0.00  0.00    +0.000 C 
BRANCH  12  15
ATOM     15  C   UNL     1      31.374  23.287  26.685  0.00  0.00    +0.000 A 
ATOM     16  C   UNL     1      32.512  23.949  27.182  0.00  0.00    +0.000 A 
ATOM     17  C   UNL     1      33.028  23.710  28.420  0.00  0.00    +0.000 A 
ATOM     18  C   UNL     1      32.432  22.783  29.248  0.00  0.00    +0.000 A 
ATOM     19  O   UNL     1      32.980  22.552  30.518  0.00  0.00    +0.000 OA
ATOM     20  C   UNL     1      31.324  22.119  28.802  0.00  0.00    +0.000 A 
ATOM     21  C   UNL     1      30.818  22.383  27.537  0.00  0.00    +0.000 A 
ATOM     22  F   UNL     1      29.682  21.713  27.141  0.00  0.00    +0.000 F 
ENDBRANCH  12  15
ENDBRANCH   2  12
TORSDOF 3
ENDMDL
