MODEL 1
REMARK VINA RESULT:      -6.9      0.000      0.000
REMARK  Name = 
REMARK  4 active torsions:
REMARK  status: ('A' for Active; 'I' for Inactive)
REMARK    1  A    between atoms: N_4  and  C_5
REMARK    2  A    between atoms: C_7  and  O_8
REMARK    3  A    between atoms: O_8  and  C_9
REMARK    4  A    between atoms: C_17  and  N_18
REMARK                            x       y       z     vdW  Elec       q    Type
REMARK                         _______ _______ _______ _____ _____    ______ ____
ROOT
ATOM      1  C   UNL     1      28.831  25.419  22.289  0.00  0.00    +0.000 A 
ATOM      2  C   UNL     1      29.857  24.725  22.885  0.00  0.00    +0.000 A 
ATOM      3  C   UNL     1      29.667  23.554  23.591  0.00  0.00    +0.000 A 
ATOM      4  C   UNL     1      28.363  23.093  23.676  0.00  0.00    +0.000 A 
ATOM      5  C   UNL     1      27.312  23.765  23.090  0.00  0.00    +0.000 A 
ATOM      6  C   UNL     1      27.536  24.929  22.395  0.00  0.00    +0.000 A 
ENDROOT
BRANCH   1  10
ATOM      7  C   UNL     1      29.881  27.915  19.550  0.00  0.00    +0.000 C 
ATOM      8  C   UNL     1      29.611  26.648  20.272  0.00  0.00    +0.000 C 
ATOM      9  O   UNL     1      29.848  25.559  19.693  0.00  0.00    +0.000 OA
ATOM     10  N   UNL     1      29.099  26.620  21.576  0.00  0.00    +0.000 NA
ENDBRANCH   1  10
BRANCH   5  11
ATOM     11  N   UNL     1      25.967  23.300  23.174  0.00  0.00    +0.000 N 
ATOM     12  O   UNL     1      25.371  23.370  24.258  0.00  0.00    +0.000 OA
ATOM     13  O   UNL     1      25.300  22.775  22.104  0.00  0.00    +0.000 OA
ENDBRANCH   5  11
BRANCH   3  14
ATOM     14  O   UNL     1      30.744  22.924  24.154  0.00  0.00    +0.000 OA
BRANCH  14  15
ATOM     15  C   UNL     1      31.131  23.022  25.465  0.00  0.00    +0.000 A 
ATOM     16  C   UNL     1      30.564  22.202  26.417  0.00  0.00    +0.000 A 
ATOM     17  C   UNL     1      30.936  22.277  27.763  0.00  0.00    +0.000 A 
ATOM     18  C   UNL     1      31.880  23.175  28.164  0.00  0.00    +0.000 A 
ATOM     19  C   UNL     1      32.451  23.995  27.223  0.00  0.00    +0.000 A 
ATOM     20  C   UNL     1      33.475  24.962  27.687  0.00  0.00    +0.000 C 
ATOM     21  C   UNL     1      32.084  23.923  25.891  0.00  0.00    +0.000 A 
ENDBRANCH  14  15
ENDBRANCH   3  14
TORSDOF 4
ENDMDL
MODEL 2
REMARK VINA RESULT:      -6.5     11.058     14.197
REMARK  Name = 
REMARK  4 active torsions:
REMARK  status: ('A' for Active; 'I' for Inactive)
REMARK    1  A    between atoms: N_4  and  C_5
REMARK    2  A    between atoms: C_7  and  O_8
REMARK    3  A    between atoms: O_8  and  C_9
REMARK    4  A    between atoms: C_17  and  N_18
REMARK                            x       y       z     vdW  Elec       q    Type
REMARK                         _______ _______ _______ _____ _____    ______ ____
ROOT
ATOM      1  C   UNL     1      32.866  22.459   9.865  0.00  0.00    +0.000 A 
ATOM      2  C   UNL     1      32.031  22.348  10.951  0.00  0.00    +0.000 A 
ATOM      3  C   UNL     1      30.880  21.588  10.944  0.00  0.00    +0.000 A 
ATOM      4  C   UNL     1      30.591  20.921   9.764  0.00  0.00    +0.000 A 
ATOM      5  C   UNL     1      31.406  21.013   8.656  0.00  0.00    +0.000 A 
ATOM      6  C   UNL     1      32.546  21.780   8.697  0.00  0.00    +0.000 A 
ENDROOT
BRANCH   1  10
ATOM      7  C   UNL     1      36.457  23.671  10.555  0.00  0.00    +0.000 C 
ATOM      8  C   UNL     1      35.247  22.814  10.487  0.00  0.00    +0.000 C 
ATOM      9  O   UNL     1      35.312  21.642  10.934  0.00  0.00    +0.000 OA
ATOM     10  N   UNL     1      34.038  23.262   9.941  0.00  0.00    +0.000 NA
ENDBRANCH   1  10
BRANCH   5  11
ATOM     11  N   UNL     1      31.117  20.333   7.437  0.00  0.00    +0.000 N 
ATOM     12  O   UNL     1      30.057  19.699   7.338  0.00  0.00    +0.000 OA
ATOM     13  O   UNL     1      31.962  20.347   6.365  0.00  0.00    +0.000 OA
ENDBRANCH   5  11
BRANCH   3  14
ATOM     14  O   UNL     1      30.104  21.529  12.070  0.00  0.00    +0.000 OA
BRANCH  14  15
ATOM     15  C   UNL     1      29.169  22.458  12.445  0.00  0.00    +0.000 A 
ATOM     16  C   UNL     1      27.941  22.497  11.818  0.00  0.00    +0.000 A 
ATOM     17  C   UNL     1      26.967  23.432  12.176  0.00  0.00    +0.000 A 
ATOM     18  C   UNL     1      27.214  24.336  13.166  0.00  0.00    +0.000 A 
ATOM     19  C   UNL     1      28.433  24.304  13.798  0.00  0.00    +0.000 A 
ATOM     20  C   UNL     1      28.675  25.299  14.870  0.00  0.00    +0.000 C 
ATOM     21  C   UNL     1      29.399  23.379  13.444  0.00  0.00    +0.000 A 
ENDBRANCH  14  15
ENDBRANCH   3  14
TORSDOF 4
ENDMDL
MODEL 3
REMARK VINA RESULT:      -6.4      4.145      5.535
REMARK  Name = 
REMARK  4 active torsions:
REMARK  status: ('A' for Active; 'I' for Inactive)
REMARK    1  A    between atoms: N_4  and  C_5
REMARK    2  A    between atoms: C_7  and  O_8
REMARK    3  A    between atoms: O_8  and  C_9
REMARK    4  A    between atoms: C_17  and  N_18
REMARK                            x       y       z     vdW  Elec       q    Type
REMARK                         _______ _______ _______ _____ _____    ______ ____
ROOT
ATOM      1  C   UNL     1      28.508  23.916  24.741  0.00  0.00    +0.000 A 
ATOM      2  C   UNL     1      27.923  23.801  25.980  0.00  0.00    +0.000 A 
ATOM      3  C   UNL     1      26.605  23.439  26.163  0.00  0.00    +0.000 A 
ATOM      4  C   UNL     1      25.872  23.189  25.013  0.00  0.00    +0.000 A 
ATOM      5  C   UNL     1      26.427  23.296  23.756  0.00  0.00    +0.000 A 
ATOM      6  C   UNL     1      27.744  23.659  23.610  0.00  0.00    +0.000 A 
ENDROOT
BRANCH   1  10
ATOM      7  C   UNL     1      32.352  23.798  24.529  0.00  0.00    +0.000 C 
ATOM      8  C   UNL     1      30.934  23.379  24.652  0.00  0.00    +0.000 C 
ATOM      9  O   UNL     1      30.675  22.157  24.781  0.00  0.00    +0.000 OA
ATOM     10  N   UNL     1      29.874  24.294  24.626  0.00  0.00    +0.000 NA
ENDBRANCH   1  10
BRANCH   5  11
ATOM     11  N   UNL     1      25.681  23.043  22.568  0.00  0.00    +0.000 N 
ATOM     12  O   UNL     1      24.622  22.403  22.646  0.00  0.00    +0.000 OA
ATOM     13  O   UNL     1      26.083  23.476  21.337  0.00  0.00    +0.000 OA
ENDBRANCH   5  11
BRANCH   3  14
ATOM     14  O   UNL     1      26.100  23.346  27.431  0.00  0.00    +0.000 OA
BRANCH  14  15
ATOM     15  C   UNL     1      25.514  24.366  28.134  0.00  0.00    +0.000 A 
ATOM     16  C   UNL     1      24.670  25.251  27.496  0.00  0.00    +0.000 A 
ATOM     17  C   UNL     1      24.057  26.302  28.185  0.00  0.00    +0.000 A 
ATOM     18  C   UNL     1      24.284  26.473  29.518  0.00  0.00    +0.000 A 
ATOM     19  C   UNL     1      25.121  25.596  30.162  0.00  0.00    +0.000 A 
ATOM     20  C   UNL     1      25.350  25.807  31.612  0.00  0.00    +0.000 C 
ATOM     21  C   UNL     1      25.729  24.556  29.483  0.00  0.00    +0.000 A 
ENDBRANCH  14  15
ENDBRANCH   3  14
TORSDOF 4
ENDMDL
MODEL 4
REMARK VINA RESULT:      -6.4      3.434      4.840
REMARK  Name = 
REMARK  4 active torsions:
REMARK  status: ('A' for Active; 'I' for Inactive)
REMARK    1  A    between atoms: N_4  and  C_5
REMARK    2  A    between atoms: C_7  and  O_8
REMARK    3  A    between atoms: O_8  and  C_9
REMARK    4  A    between atoms: C_17  and  N_18
REMARK                            x       y       z     vdW  Elec       q    Type
REMARK                         _______ _______ _______ _____ _____    ______ ____
ROOT
ATOM      1  C   UNL     1      30.320  23.170  24.383  0.00  0.00    +0.000 A 
ATOM      2  C   UNL     1      29.650  22.693  25.485  0.00  0.00    +0.000 A 
ATOM      3  C   UNL     1      28.275  22.612  25.557  0.00  0.00    +0.000 A 
ATOM      4  C   UNL     1      27.575  23.043  24.441  0.00  0.00    +0.000 A 
ATOM      5  C   UNL     1      28.215  23.527  23.320  0.00  0.00    +0.000 A 
ATOM      6  C   UNL     1      29.587  23.594  23.282  0.00  0.00    +0.000 A 
ENDROOT
BRANCH   1  10
ATOM      7  C   UNL     1      33.954  24.389  24.752  0.00  0.00    +0.000 C 
ATOM      8  C   UNL     1      32.471  24.355  24.766  0.00  0.00    +0.000 C 
ATOM      9  O   UNL     1      31.848  25.378  25.143  0.00  0.00    +0.000 OA
ATOM     10  N   UNL     1      31.741  23.226  24.377  0.00  0.00    +0.000 NA
ENDBRANCH   1  10
BRANCH   5  11
ATOM     11  N   UNL     1      27.505  23.974  22.168  0.00  0.00    +0.000 N 
ATOM     12  O   UNL     1      27.953  24.926  21.515  0.00  0.00    +0.000 OA
ATOM     13  O   UNL     1      26.341  23.395  21.748  0.00  0.00    +0.000 OA
ENDBRANCH   5  11
BRANCH   3  14
ATOM     14  O   UNL     1      27.686  22.124  26.692  0.00  0.00    +0.000 OA
BRANCH  14  15
ATOM     15  C   UNL     1      27.092  22.877  27.671  0.00  0.00    +0.000 A 
ATOM     16  C   UNL     1      27.386  22.643  28.998  0.00  0.00    +0.000 A 
ATOM     17  C   UNL     1      26.797  23.393  30.020  0.00  0.00    +0.000 A 
ATOM     18  C   UNL     1      25.909  24.382  29.721  0.00  0.00    +0.000 A 
ATOM     19  C   UNL     1      25.611  24.624  28.402  0.00  0.00    +0.000 A 
ATOM     20  C   UNL     1      24.642  25.706  28.106  0.00  0.00    +0.000 C 
ATOM     21  C   UNL     1      26.193  23.883  27.389  0.00  0.00    +0.000 A 
ENDBRANCH  14  15
ENDBRANCH   3  14
TORSDOF 4
ENDMDL
MODEL 5
REMARK VINA RESULT:      -6.2     20.334     21.827
REMARK  Name = 
REMARK  4 active torsions:
REMARK  status: ('A' for Active; 'I' for Inactive)
REMARK    1  A    between atoms: N_4  and  C_5
REMARK    2  A    between atoms: C_7  and  O_8
REMARK    3  A    between atoms: O_8  and  C_9
REMARK    4  A    between atoms: C_17  and  N_18
REMARK                            x       y       z     vdW  Elec       q    Type
REMARK                         _______ _______ _______ _____ _____    ______ ____
ROOT
ATOM      1  C   UNL     1      20.766  11.724  38.594  0.00  0.00    +0.000 A 
ATOM      2  C   UNL     1      19.582  11.150  38.197  0.00  0.00    +0.000 A 
ATOM      3  C   UNL     1      19.502  10.179  37.220  0.00  0.00    +0.000 A 
ATOM      4  C   UNL     1      20.700   9.793  36.640  0.00  0.00    +0.000 A 
ATOM      5  C   UNL     1      21.905  10.349  37.013  0.00  0.00    +0.000 A 
ATOM      6  C   UNL     1      21.947  11.315  37.990  0.00  0.00    +0.000 A 
ENDROOT
BRANCH   1  10
ATOM      7  C   UNL     1      20.572  15.104  40.430  0.00  0.00    +0.000 C 
ATOM      8  C   UNL     1      20.559  14.082  39.355  0.00  0.00    +0.000 C 
ATOM      9  O   UNL     1      20.346  14.451  38.173  0.00  0.00    +0.000 OA
ATOM     10  N   UNL     1      20.774  12.721  39.608  0.00  0.00    +0.000 NA
ENDBRANCH   1  10
BRANCH   5  11
ATOM     11  N   UNL     1      23.142   9.960  36.421  0.00  0.00    +0.000 N 
ATOM     12  O   UNL     1      23.427   8.756  36.356  0.00  0.00    +0.000 OA
ATOM     13  O   UNL     1      24.034  10.862  35.917  0.00  0.00    +0.000 OA
ENDBRANCH   5  11
BRANCH   3  14
ATOM     14  O   UNL     1      18.282   9.658  36.884  0.00  0.00    +0.000 OA
BRANCH  14  15
ATOM     15  C   UNL     1      17.354  10.257  36.074  0.00  0.00    +0.000 A 
ATOM     16  C   UNL     1      16.334  11.004  36.625  0.00  0.00    +0.000 A 
ATOM     17  C   UNL     1      15.371  11.627  35.826  0.00  0.00    +0.000 A 
ATOM     18  C   UNL     1      15.422  11.506  34.470  0.00  0.00    +0.000 A 
ATOM     19  C   UNL     1      16.434  10.765  33.911  0.00  0.00    +0.000 A 
ATOM     20  C   UNL     1      16.465  10.650  32.434  0.00  0.00    +0.000 C 
ATOM     21  C   UNL     1      17.388  10.147  34.700  0.00  0.00    +0.000 A 
ENDBRANCH  14  15
ENDBRANCH   3  14
TORSDOF 4
ENDMDL
MODEL 6
REMARK VINA RESULT:      -6.1      2.824      5.062
REMARK  Name = 
REMARK  4 active torsions:
REMARK  status: ('A' for Active; 'I' for Inactive)
REMARK    1  A    between atoms: N_4  and  C_5
REMARK    2  A    between atoms: C_7  and  O_8
REMARK    3  A    between atoms: O_8  and  C_9
REMARK    4  A    between atoms: C_17  and  N_18
REMARK                            x       y       z     vdW  Elec       q    Type
REMARK                         _______ _______ _______ _____ _____    ______ ____
ROOT
ATOM      1  C   UNL     1      28.275  22.400  26.369  0.00  0.00    +0.000 A 
ATOM      2  C   UNL     1      29.553  22.557  25.888  0.00  0.00    +0.000 A 
ATOM      3  C   UNL     1      29.832  22.963  24.599  0.00  0.00    +0.000 A 
ATOM      4  C   UNL     1      28.738  23.213  23.785  0.00  0.00    +0.000 A 
ATOM      5  C   UNL     1      27.444  23.063  24.235  0.00  0.00    +0.000 A 
ATOM      6  C   UNL     1      27.203  22.657  25.525  0.00  0.00    +0.000 A 
ENDROOT
BRANCH   1  10
ATOM      7  C   UNL     1      27.773  22.394  30.188  0.00  0.00    +0.000 C 
ATOM      8  C   UNL     1      27.997  22.859  28.797  0.00  0.00    +0.000 C 
ATOM      9  O   UNL     1      28.133  24.090  28.586  0.00  0.00    +0.000 OA
ATOM     10  N   UNL     1      28.061  21.978  27.710  0.00  0.00    +0.000 NA
ENDBRANCH   1  10
BRANCH   5  11
ATOM     11  N   UNL     1      26.313  23.316  23.405  0.00  0.00    +0.000 N 
ATOM     12  O   UNL     1      26.444  23.259  22.174  0.00  0.00    +0.000 OA
ATOM     13  O   UNL     1      25.082  23.622  23.908  0.00  0.00    +0.000 OA
ENDBRANCH   5  11
BRANCH   3  14
ATOM     14  O   UNL     1      31.134  23.096  24.200  0.00  0.00    +0.000 OA
BRANCH  14  15
ATOM     15  C   UNL     1      31.971  24.127  24.537  0.00  0.00    +0.000 A 
ATOM     16  C   UNL     1      31.453  25.365  24.853  0.00  0.00    +0.000 A 
ATOM     17  C   UNL     1      32.280  26.437  25.200  0.00  0.00    +0.000 A 
ATOM     18  C   UNL     1      33.633  26.276  25.234  0.00  0.00    +0.000 A 
ATOM     19  C   UNL     1      34.159  25.047  24.922  0.00  0.00    +0.000 A 
ATOM     20  C   UNL     1      35.634  24.901  24.966  0.00  0.00    +0.000 C 
ATOM     21  C   UNL     1      33.342  23.985  24.577  0.00  0.00    +0.000 A 
ENDBRANCH  14  15
ENDBRANCH   3  14
TORSDOF 4
ENDMDL
MODEL 7
REMARK VINA RESULT:      -6.1      4.778      6.616
REMARK  Name = 
REMARK  4 active torsions:
REMARK  status: ('A' for Active; 'I' for Inactive)
REMARK    1  A    between atoms: N_4  and  C_5
REMARK    2  A    between atoms: C_7  and  O_8
REMARK    3  A    between atoms: O_8  and  C_9
REMARK    4  A    between atoms: C_17  and  N_18
REMARK                            x       y       z     vdW  Elec       q    Type
REMARK                         _______ _______ _______ _____ _____    ______ ____
ROOT
ATOM      1  C   UNL     1      24.768  25.733  27.261  0.00  0.00    +0.000 A 
ATOM      2  C   UNL     1      25.328  24.838  26.381  0.00  0.00    +0.000 A 
ATOM      3  C   UNL     1      26.039  23.727  26.783  0.00  0.00    +0.000 A 
ATOM      4  C   UNL     1      26.171  23.545  28.151  0.00  0.00    +0.000 A 
ATOM      5  C   UNL     1      25.623  24.424  29.060  0.00  0.00    +0.000 A 
ATOM      6  C   UNL     1      24.920  25.521  28.624  0.00  0.00    +0.000 A 
ENDROOT
BRANCH   1  10
ATOM      7  C   UNL     1      21.919  28.095  26.193  0.00  0.00    +0.000 C 
ATOM      8  C   UNL     1      22.649  26.909  26.703  0.00  0.00    +0.000 C 
ATOM      9  O   UNL     1      21.988  25.912  27.086  0.00  0.00    +0.000 OA
ATOM     10  N   UNL     1      24.047  26.859  26.775  0.00  0.00    +0.000 NA
ENDBRANCH   1  10
BRANCH   5  11
ATOM     11  N   UNL     1      25.754  24.245  30.468  0.00  0.00    +0.000 N 
ATOM     12  O   UNL     1      26.247  23.193  30.900  0.00  0.00    +0.000 OA
ATOM     13  O   UNL     1      25.358  25.189  31.372  0.00  0.00    +0.000 OA
ENDBRANCH   5  11
BRANCH   3  14
ATOM     14  O   UNL     1      26.564  22.884  25.841  0.00  0.00    +0.000 OA
BRANCH  14  15
ATOM     15  C   UNL     1      27.789  23.018  25.243  0.00  0.00    +0.000 A 
ATOM     16  C   UNL     1      28.921  22.536  25.866  0.00  0.00    +0.000 A 
ATOM     17  C   UNL     1      30.185  22.657  25.283  0.00  0.00    +0.000 A 
ATOM     18  C   UNL     1      30.325  23.263  24.070  0.00  0.00    +0.000 A 
ATOM     19  C   UNL     1      29.205  23.745  23.440  0.00  0.00    +0.000 A 
ATOM     20  C   UNL     1      29.387  24.399  22.122  0.00  0.00    +0.000 C 
ATOM     21  C   UNL     1      27.952  23.626  24.016  0.00  0.00    +0.000 A 
ENDBRANCH  14  15
ENDBRANCH   3  14
TORSDOF 4
ENDMDL
MODEL 8
REMARK VINA RESULT:      -6.1      2.578      4.432
REMARK  Name = 
REMARK  4 active torsions:
REMARK  status: ('A' for Active; 'I' for Inactive)
REMARK    1  A    between atoms: N_4  and  C_5
REMARK    2  A    between atoms: C_7  and  O_8
REMARK    3  A    between atoms: O_8  and  C_9
REMARK    4  A    between atoms: C_17  and  N_18
REMARK                            x       y       z     vdW  Elec       q    Type
REMARK                         _______ _______ _______ _____ _____    ______ ____
ROOT
ATOM      1  C   UNL     1      26.815  23.464  25.947  0.00  0.00    +0.000 A 
ATOM      2  C   UNL     1      28.106  23.010  26.079  0.00  0.00    +0.000 A 
ATOM      3  C   UNL     1      28.932  22.760  25.004  0.00  0.00    +0.000 A 
ATOM      4  C   UNL     1      28.393  22.991  23.748  0.00  0.00    +0.000 A 
ATOM      5  C   UNL     1      27.102  23.445  23.581  0.00  0.00    +0.000 A 
ATOM      6  C   UNL     1      26.306  23.684  24.675  0.00  0.00    +0.000 A 
ENDROOT
BRANCH   1  10
ATOM      7  C   UNL     1      25.195  25.127  29.021  0.00  0.00    +0.000 C 
ATOM      8  C   UNL     1      26.036  24.903  27.820  0.00  0.00    +0.000 C 
ATOM      9  O   UNL     1      26.793  25.828  27.432  0.00  0.00    +0.000 OA
ATOM     10  N   UNL     1      26.018  23.701  27.101  0.00  0.00    +0.000 NA
ENDBRANCH   1  10
BRANCH   5  11
ATOM     11  N   UNL     1      26.539  23.685  22.294  0.00  0.00    +0.000 N 
ATOM     12  O   UNL     1      25.591  22.985  21.911  0.00  0.00    +0.000 OA
ATOM     13  O   UNL     1      26.999  24.659  21.456  0.00  0.00    +0.000 OA
ENDBRANCH   5  11
BRANCH   3  14
ATOM     14  O   UNL     1      30.206  22.309  25.222  0.00  0.00    +0.000 OA
BRANCH  14  15
ATOM     15  C   UNL     1      31.284  23.089  25.551  0.00  0.00    +0.000 A 
ATOM     16  C   UNL     1      32.088  23.612  24.561  0.00  0.00    +0.000 A 
ATOM     17  C   UNL     1      33.195  24.410  24.864  0.00  0.00    +0.000 A 
ATOM     18  C   UNL     1      33.504  24.691  26.161  0.00  0.00    +0.000 A 
ATOM     19  C   UNL     1      32.708  24.176  27.154  0.00  0.00    +0.000 A 
ATOM     20  C   UNL     1      33.068  24.497  28.556  0.00  0.00    +0.000 C 
ATOM     21  C   UNL     1      31.613  23.385  26.857  0.00  0.00    +0.000 A 
ENDBRANCH  14  15
ENDBRANCH   3  14
TORSDOF 4
ENDMDL
MODEL 9
REMARK VINA RESULT:      -6.1      4.174      7.547
REMARK  Name = 
REMARK  4 active torsions:
REMARK  status: ('A' for Active; 'I' for Inactive)
REMARK    1  A    between atoms: N_4  and  C_5
REMARK    2  A    between atoms: C_7  and  O_8
REMARK    3  A    between atoms: O_8  and  C_9
REMARK    4  A    between atoms: C_17  and  N_18
REMARK                            x       y       z     vdW  Elec       q    Type
REMARK                         _______ _______ _______ _____ _____    ______ ____
ROOT
ATOM      1  C   UNL     1      29.953  23.106  29.665  0.00  0.00    +0.000 A 
ATOM      2  C   UNL     1      29.960  22.763  28.334  0.00  0.00    +0.000 A 
ATOM      3  C   UNL     1      28.828  22.375  27.648  0.00  0.00    +0.000 A 
ATOM      4  C   UNL     1      27.649  22.345  28.376  0.00  0.00    +0.000 A 
ATOM      5  C   UNL     1      27.607  22.682  29.712  0.00  0.00    +0.000 A 
ATOM      6  C   UNL     1      28.755  23.063  30.365  0.00  0.00    +0.000 A 
ENDROOT
BRANCH   1  10
ATOM      7  C   UNL     1      33.260  23.030  31.639  0.00  0.00    +0.000 C 
ATOM      8  C   UNL     1      32.006  22.599  30.973  0.00  0.00    +0.000 C 
ATOM      9  O   UNL     1      31.694  21.383  31.004  0.00  0.00    +0.000 OA
ATOM     10  N   UNL     1      31.159  23.496  30.311  0.00  0.00    +0.000 NA
ENDBRANCH   1  10
BRANCH   5  11
ATOM     11  N   UNL     1      26.400  22.653  30.469  0.00  0.00    +0.000 N 
ATOM     12  O   UNL     1      25.852  23.722  30.771  0.00  0.00    +0.000 OA
ATOM     13  O   UNL     1      25.815  21.490  30.882  0.00  0.00    +0.000 OA
ENDBRANCH   5  11
BRANCH   3  14
ATOM     14  O   UNL     1      28.920  22.050  26.322  0.00  0.00    +0.000 OA
BRANCH  14  15
ATOM     15  C   UNL     1      28.312  22.717  25.291  0.00  0.00    +0.000 A 
ATOM     16  C   UNL     1      26.948  22.918  25.307  0.00  0.00    +0.000 A 
ATOM     17  C   UNL     1      26.296  23.594  24.271  0.00  0.00    +0.000 A 
ATOM     18  C   UNL     1      27.007  24.073  23.212  0.00  0.00    +0.000 A 
ATOM     19  C   UNL     1      28.366  23.879  23.187  0.00  0.00    +0.000 A 
ATOM     20  C   UNL     1      29.114  24.412  22.023  0.00  0.00    +0.000 C 
ATOM     21  C   UNL     1      29.013  23.210  24.212  0.00  0.00    +0.000 A 
ENDBRANCH  14  15
ENDBRANCH   3  14
TORSDOF 4
ENDMDL
MODEL 10
REMARK VINA RESULT:      -6.0     31.785     33.625
REMARK  Name = 
REMARK  4 active torsions:
REMARK  status: ('A' for Active; 'I' for Inactive)
REMARK    1  A    between atoms: N_4  and  C_5
REMARK    2  A    between atoms: C_7  and  O_8
REMARK    3  A    between atoms: O_8  and  C_9
REMARK    4  A    between atoms: C_17  and  N_18
REMARK                            x       y       z     vdW  Elec       q    Type
REMARK                         _______ _______ _______ _____ _____    ______ ____
ROOT
ATOM      1  C   UNL     1      20.263  -8.749  26.327  0.00  0.00    +0.000 A 
ATOM      2  C   UNL     1      21.323  -8.233  25.621  0.00  0.00    +0.000 A 
ATOM      3  C   UNL     1      21.408  -6.909  25.243  0.00  0.00    +0.000 A 
ATOM      4  C   UNL     1      20.349  -6.096  25.616  0.00  0.00    +0.000 A 
ATOM      5  C   UNL     1      19.270  -6.581  26.324  0.00  0.00    +0.000 A 
ATOM      6  C   UNL     1      19.218  -7.906  26.683  0.00  0.00    +0.000 A 
ENDROOT
BRANCH   1  10
ATOM      7  C   UNL     1      20.374 -12.030  28.342  0.00  0.00    +0.000 C 
ATOM      8  C   UNL     1      20.401 -10.587  27.996  0.00  0.00    +0.000 C 
ATOM      9  O   UNL     1      20.574  -9.749  28.915  0.00  0.00    +0.000 OA
ATOM     10  N   UNL     1      20.240 -10.126  26.683  0.00  0.00    +0.000 NA
ENDBRANCH   1  10
BRANCH   5  11
ATOM     11  N   UNL     1      18.177  -5.752  26.710  0.00  0.00    +0.000 N 
ATOM     12  O   UNL     1      17.167  -6.277  27.201  0.00  0.00    +0.000 OA
ATOM     13  O   UNL     1      18.190  -4.395  26.563  0.00  0.00    +0.000 OA
ENDBRANCH   5  11
BRANCH   3  14
ATOM     14  O   UNL     1      22.500  -6.476  24.542  0.00  0.00    +0.000 OA
BRANCH  14  15
ATOM     15  C   UNL     1      23.234  -7.227  23.662  0.00  0.00    +0.000 A 
ATOM     16  C   UNL     1      22.640  -7.743  22.529  0.00  0.00    +0.000 A 
ATOM     17  C   UNL     1      23.361  -8.513  21.612  0.00  0.00    +0.000 A 
ATOM     18  C   UNL     1      24.682  -8.773  21.823  0.00  0.00    +0.000 A 
ATOM     19  C   UNL     1      25.283  -8.263  22.948  0.00  0.00    +0.000 A 
ATOM     20  C   UNL     1      26.720  -8.562  23.152  0.00  0.00    +0.000 C 
ATOM     21  C   UNL     1      24.571  -7.501  23.857  0.00  0.00    +0.000 A 
ENDBRANCH  14  15
ENDBRANCH   3  14
TORSDOF 4
ENDMDL
