MODEL 1
REMARK VINA RESULT:      -7.0      0.000      0.000
REMARK  Name = 
REMARK  7 active torsions:
REMARK  status: ('A' for Active; 'I' for Inactive)
REMARK    1  A    between atoms: O_2  and  C_3
REMARK    2  A    between atoms: C_6  and  N_7
REMARK    3  A    between atoms: C_8  and  C_9
REMARK    4  A    between atoms: C_12  and  O_13
REMARK    5  A    between atoms: C_16  and  O_17
REMARK    6  A    between atoms: C_20  and  C_21
REMARK    7  A    between atoms: N_23  and  C_24
REMARK                            x       y       z     vdW  Elec       q    Type
REMARK                         _______ _______ _______ _____ _____    ______ ____
ROOT
ATOM      1  N   UNL     1      38.065  -0.562  14.669  0.00  0.00    +0.000 N 
ATOM      2  C   UNL     1      36.947  -1.029  15.201  0.00  0.00    +0.000 A 
ATOM      3  C   UNL     1      36.206   0.116  15.508  0.00  0.00    +0.000 A 
ATOM      4  C   UNL     1      36.893   1.221  15.153  0.00  0.00    +0.000 A 
ATOM      5  C   UNL     1      38.091   0.801  14.612  0.00  0.00    +0.000 A 
ATOM      6  C   UNL     1      39.184   1.678  14.075  0.00  0.00    +0.000 C 
ENDROOT
BRANCH   1  10
ATOM      7  C   UNL     1      41.428  -2.674  13.193  0.00  0.00    +0.000 A 
ATOM      8  C   UNL     1      41.455  -2.221  14.533  0.00  0.00    +0.000 A 
ATOM      9  C   UNL     1      40.328  -1.549  14.959  0.00  0.00    +0.000 A 
ATOM     10  C   UNL     1      39.211  -1.291  14.213  0.00  0.00    +0.000 A 
ATOM     11  C   UNL     1      39.235  -1.757  12.917  0.00  0.00    +0.000 A 
ATOM     12  C   UNL     1      40.350  -2.445  12.419  0.00  0.00    +0.000 A 
BRANCH   7  14
ATOM     13  C   UNL     1      43.058  -3.030  11.423  0.00  0.00    +0.000 C 
ATOM     14  O   UNL     1      42.538  -3.352  12.716  0.00  0.00    +0.000 OA
ENDBRANCH   7  14
ENDBRANCH   1  10
BRANCH   2  15
ATOM     15  C   UNL     1      36.513  -2.412  15.433  0.00  0.00    +0.000 A 
ATOM     16  C   UNL     1      35.692  -3.125  14.620  0.00  0.00    +0.000 A 
ATOM     17  C   UNL     1      35.320  -4.436  14.864  0.00  0.00    +0.000 A 
ATOM     18  C   UNL     1      35.811  -5.065  16.006  0.00  0.00    +0.000 A 
ATOM     19  C   UNL     1      36.649  -4.341  16.842  0.00  0.00    +0.000 A 
ATOM     20  C   UNL     1      36.995  -3.047  16.567  0.00  0.00    +0.000 A 
BRANCH  18  21
ATOM     21  O   UNL     1      35.522  -6.363  16.363  0.00  0.00    +0.000 OA
ATOM     22  C   UNL     1      34.420  -7.073  15.847  0.00  0.00    +0.000 C 
ENDBRANCH  18  21
BRANCH  20  23
ATOM     23  O   UNL     1      37.847  -2.366  17.455  0.00  0.00    +0.000 OA
ATOM     24  C   UNL     1      37.375  -2.072  18.753  0.00  0.00    +0.000 C 
ENDBRANCH  20  23
ENDBRANCH   2  15
BRANCH   4  25
ATOM     25  C   UNL     1      36.522   2.634  15.221  0.00  0.00    +0.000 C 
ATOM     26  O   UNL     1      36.423   3.223  16.324  0.00  0.00    +0.000 OA
ATOM     27  N   UNL     1      36.258   3.387  14.045  0.00  0.00    +0.000 NA
BRANCH  27  28
ATOM     28  C   UNL     1      35.908   4.763  14.118  0.00  0.00    +0.000 A 
ATOM     29  C   UNL     1      36.944   5.687  14.171  0.00  0.00    +0.000 A 
ATOM     30  C   UNL     1      36.657   7.013  14.250  0.00  0.00    +0.000 A 
ATOM     31  C   UNL     1      35.337   7.462  14.278  0.00  0.00    +0.000 A 
ATOM     32  C   UNL     1      34.287   6.539  14.223  0.00  0.00    +0.000 A 
ATOM     33  C   UNL     1      34.601   5.207  14.144  0.00  0.00    +0.000 A 
ENDBRANCH  27  28
ENDBRANCH   4  25
TORSDOF 7
ENDMDL
MODEL 2
REMARK VINA RESULT:      -7.0      2.393      7.085
REMARK  Name = 
REMARK  7 active torsions:
REMARK  status: ('A' for Active; 'I' for Inactive)
REMARK    1  A    between atoms: O_2  and  C_3
REMARK    2  A    between atoms: C_6  and  N_7
REMARK    3  A    between atoms: C_8  and  C_9
REMARK    4  A    between atoms: C_12  and  O_13
REMARK    5  A    between atoms: C_16  and  O_17
REMARK    6  A    between atoms: C_20  and  C_21
REMARK    7  A    between atoms: N_23  and  C_24
REMARK                            x       y       z     vdW  Elec       q    Type
REMARK                         _______ _______ _______ _____ _____    ______ ____
ROOT
ATOM      1  N   UNL     1      38.621  -1.109  14.880  0.00  0.00    +0.000 N 
ATOM      2  C   UNL     1      38.664  -2.430  14.833  0.00  0.00    +0.000 A 
ATOM      3  C   UNL     1      39.971  -2.720  14.432  0.00  0.00    +0.000 A 
ATOM      4  C   UNL     1      40.665  -1.577  14.256  0.00  0.00    +0.000 A 
ATOM      5  C   UNL     1      39.810  -0.532  14.540  0.00  0.00    +0.000 A 
ATOM      6  C   UNL     1      40.139   0.932  14.483  0.00  0.00    +0.000 C 
ENDROOT
BRANCH   1  10
ATOM      7  C   UNL     1      35.384   1.420  15.916  0.00  0.00    +0.000 A 
ATOM      8  C   UNL     1      35.766   1.341  14.556  0.00  0.00    +0.000 A 
ATOM      9  C   UNL     1      36.819   0.494  14.279  0.00  0.00    +0.000 A 
ATOM     10  C   UNL     1      37.508  -0.260  15.188  0.00  0.00    +0.000 A 
ATOM     11  C   UNL     1      37.095  -0.149  16.497  0.00  0.00    +0.000 A 
ATOM     12  C   UNL     1      36.033   0.696  16.848  0.00  0.00    +0.000 A 
BRANCH   7  14
ATOM     13  C   UNL     1      34.124   3.458  15.492  0.00  0.00    +0.000 C 
ATOM     14  O   UNL     1      34.333   2.260  16.246  0.00  0.00    +0.000 OA
ENDBRANCH   7  14
ENDBRANCH   1  10
BRANCH   2  15
ATOM     15  C   UNL     1      37.624  -3.424  15.130  0.00  0.00    +0.000 A 
ATOM     16  C   UNL     1      36.522  -3.660  14.372  0.00  0.00    +0.000 A 
ATOM     17  C   UNL     1      35.574  -4.620  14.675  0.00  0.00    +0.000 A 
ATOM     18  C   UNL     1      35.752  -5.392  15.822  0.00  0.00    +0.000 A 
ATOM     19  C   UNL     1      36.875  -5.155  16.602  0.00  0.00    +0.000 A 
ATOM     20  C   UNL     1      37.791  -4.196  16.269  0.00  0.00    +0.000 A 
BRANCH  18  21
ATOM     21  O   UNL     1      34.887  -6.381  16.236  0.00  0.00    +0.000 OA
ATOM     22  C   UNL     1      34.209  -7.231  15.339  0.00  0.00    +0.000 C 
ENDBRANCH  18  21
BRANCH  20  23
ATOM     23  O   UNL     1      38.907  -4.003  17.102  0.00  0.00    +0.000 OA
ATOM     24  C   UNL     1      38.712  -3.405  18.366  0.00  0.00    +0.000 C 
ENDBRANCH  20  23
ENDBRANCH   2  15
BRANCH   4  25
ATOM     25  C   UNL     1      42.066  -1.361  13.896  0.00  0.00    +0.000 C 
ATOM     26  O   UNL     1      42.386  -0.996  12.740  0.00  0.00    +0.000 OA
ATOM     27  N   UNL     1      43.111  -1.560  14.839  0.00  0.00    +0.000 NA
BRANCH  27  28
ATOM     28  C   UNL     1      44.470  -1.338  14.486  0.00  0.00    +0.000 A 
ATOM     29  C   UNL     1      45.013  -0.093  14.772  0.00  0.00    +0.000 A 
ATOM     30  C   UNL     1      46.306   0.168  14.444  0.00  0.00    +0.000 A 
ATOM     31  C   UNL     1      47.099  -0.798  13.825  0.00  0.00    +0.000 A 
ATOM     32  C   UNL     1      46.561  -2.057  13.535  0.00  0.00    +0.000 A 
ATOM     33  C   UNL     1      45.254  -2.296  13.874  0.00  0.00    +0.000 A 
ENDBRANCH  27  28
ENDBRANCH   4  25
TORSDOF 7
ENDMDL
MODEL 3
REMARK VINA RESULT:      -6.7      4.324      6.567
REMARK  Name = 
REMARK  7 active torsions:
REMARK  status: ('A' for Active; 'I' for Inactive)
REMARK    1  A    between atoms: O_2  and  C_3
REMARK    2  A    between atoms: C_6  and  N_7
REMARK    3  A    between atoms: C_8  and  C_9
REMARK    4  A    between atoms: C_12  and  O_13
REMARK    5  A    between atoms: C_16  and  O_17
REMARK    6  A    between atoms: C_20  and  C_21
REMARK    7  A    between atoms: N_23  and  C_24
REMARK                            x       y       z     vdW  Elec       q    Type
REMARK                         _______ _______ _______ _____ _____    ______ ____
ROOT
ATOM      1  N   UNL     1      38.076   1.795  13.293  0.00  0.00    +0.000 N 
ATOM      2  C   UNL     1      38.219   0.482  13.224  0.00  0.00    +0.000 A 
ATOM      3  C   UNL     1      38.100   0.191  11.862  0.00  0.00    +0.000 A 
ATOM      4  C   UNL     1      37.893   1.327  11.163  0.00  0.00    +0.000 A 
ATOM      5  C   UNL     1      37.875   2.367  12.070  0.00  0.00    +0.000 A 
ATOM      6  C   UNL     1      37.676   3.821  11.757  0.00  0.00    +0.000 C 
ENDROOT
BRANCH   1  10
ATOM      7  C   UNL     1      38.124   4.361  16.664  0.00  0.00    +0.000 A 
ATOM      8  C   UNL     1      36.966   3.582  16.429  0.00  0.00    +0.000 A 
ATOM      9  C   UNL     1      37.013   2.759  15.323  0.00  0.00    +0.000 A 
ATOM     10  C   UNL     1      38.063   2.634  14.455  0.00  0.00    +0.000 A 
ATOM     11  C   UNL     1      39.166   3.410  14.731  0.00  0.00    +0.000 A 
ATOM     12  C   UNL     1      39.183   4.271  15.837  0.00  0.00    +0.000 A 
BRANCH   7  14
ATOM     13  C   UNL     1      39.283   5.275  18.597  0.00  0.00    +0.000 C 
ATOM     14  O   UNL     1      38.125   5.206  17.761  0.00  0.00    +0.000 OA
ENDBRANCH   7  14
ENDBRANCH   1  10
BRANCH   2  15
ATOM     15  C   UNL     1      38.462  -0.503  14.286  0.00  0.00    +0.000 A 
ATOM     16  C   UNL     1      37.543  -0.923  15.193  0.00  0.00    +0.000 A 
ATOM     17  C   UNL     1      37.805  -1.869  16.169  0.00  0.00    +0.000 A 
ATOM     18  C   UNL     1      39.081  -2.425  16.230  0.00  0.00    +0.000 A 
ATOM     19  C   UNL     1      40.025  -2.000  15.307  0.00  0.00    +0.000 A 
ATOM     20  C   UNL     1      39.728  -1.062  14.356  0.00  0.00    +0.000 A 
BRANCH  18  21
ATOM     21  O   UNL     1      39.472  -3.376  17.147  0.00  0.00    +0.000 OA
ATOM     22  C   UNL     1      38.556  -4.111  17.927  0.00  0.00    +0.000 C 
ENDBRANCH  18  21
BRANCH  20  23
ATOM     23  O   UNL     1      40.730  -0.671  13.450  0.00  0.00    +0.000 OA
ATOM     24  C   UNL     1      41.793   0.131  13.921  0.00  0.00    +0.000 C 
ENDBRANCH  20  23
ENDBRANCH   2  15
BRANCH   4  25
ATOM     25  C   UNL     1      37.761   1.546   9.723  0.00  0.00    +0.000 C 
ATOM     26  O   UNL     1      38.768   1.767   9.009  0.00  0.00    +0.000 OA
ATOM     27  N   UNL     1      36.492   1.521   9.085  0.00  0.00    +0.000 NA
BRANCH  27  28
ATOM     28  C   UNL     1      36.372   1.726   7.683  0.00  0.00    +0.000 A 
ATOM     29  C   UNL     1      36.011   2.995   7.248  0.00  0.00    +0.000 A 
ATOM     30  C   UNL     1      35.876   3.234   5.917  0.00  0.00    +0.000 A 
ATOM     31  C   UNL     1      36.095   2.226   4.979  0.00  0.00    +0.000 A 
ATOM     32  C   UNL     1      36.461   0.946   5.408  0.00  0.00    +0.000 A 
ATOM     33  C   UNL     1      36.590   0.727   6.755  0.00  0.00    +0.000 A 
ENDBRANCH  27  28
ENDBRANCH   4  25
TORSDOF 7
ENDMDL
MODEL 4
REMARK VINA RESULT:      -6.7      1.218      5.225
REMARK  Name = 
REMARK  7 active torsions:
REMARK  status: ('A' for Active; 'I' for Inactive)
REMARK    1  A    between atoms: O_2  and  C_3
REMARK    2  A    between atoms: C_6  and  N_7
REMARK    3  A    between atoms: C_8  and  C_9
REMARK    4  A    between atoms: C_12  and  O_13
REMARK    5  A    between atoms: C_16  and  O_17
REMARK    6  A    between atoms: C_20  and  C_21
REMARK    7  A    between atoms: N_23  and  C_24
REMARK                            x       y       z     vdW  Elec       q    Type
REMARK                         _______ _______ _______ _____ _____    ______ ____
ROOT
ATOM      1  N   UNL     1      37.824  -0.473  14.950  0.00  0.00    +0.000 N 
ATOM      2  C   UNL     1      38.967  -0.116  14.391  0.00  0.00    +0.000 A 
ATOM      3  C   UNL     1      38.887   1.276  14.295  0.00  0.00    +0.000 A 
ATOM      4  C   UNL     1      37.712   1.707  14.798  0.00  0.00    +0.000 A 
ATOM      5  C   UNL     1      37.016   0.594  15.223  0.00  0.00    +0.000 A 
ATOM      6  C   UNL     1      35.654   0.578  15.854  0.00  0.00    +0.000 C 
ENDROOT
BRANCH   1  10
ATOM      7  C   UNL     1      36.402  -4.335  15.953  0.00  0.00    +0.000 A 
ATOM      8  C   UNL     1      36.092  -3.817  14.673  0.00  0.00    +0.000 A 
ATOM      9  C   UNL     1      36.591  -2.560  14.401  0.00  0.00    +0.000 A 
ATOM     10  C   UNL     1      37.344  -1.791  15.245  0.00  0.00    +0.000 A 
ATOM     11  C   UNL     1      37.620  -2.343  16.475  0.00  0.00    +0.000 A 
ATOM     12  C   UNL     1      37.141  -3.615  16.818  0.00  0.00    +0.000 A 
BRANCH   7  14
ATOM     13  C   UNL     1      34.781  -6.111  15.585  0.00  0.00    +0.000 C 
ATOM     14  O   UNL     1      35.921  -5.594  16.276  0.00  0.00    +0.000 OA
ENDBRANCH   7  14
ENDBRANCH   1  10
BRANCH   2  15
ATOM     15  C   UNL     1      40.106  -0.934  13.956  0.00  0.00    +0.000 A 
ATOM     16  C   UNL     1      41.141  -1.324  14.746  0.00  0.00    +0.000 A 
ATOM     17  C   UNL     1      42.188  -2.113  14.304  0.00  0.00    +0.000 A 
ATOM     18  C   UNL     1      42.189  -2.535  12.976  0.00  0.00    +0.000 A 
ATOM     19  C   UNL     1      41.136  -2.139  12.163  0.00  0.00    +0.000 A 
ATOM     20  C   UNL     1      40.118  -1.358  12.637  0.00  0.00    +0.000 A 
BRANCH  18  21
ATOM     21  O   UNL     1      43.167  -3.323  12.411  0.00  0.00    +0.000 OA
ATOM     22  C   UNL     1      44.496  -3.348  12.878  0.00  0.00    +0.000 C 
ENDBRANCH  18  21
BRANCH  20  23
ATOM     23  O   UNL     1      39.080  -0.989  11.763  0.00  0.00    +0.000 OA
ATOM     24  C   UNL     1      39.361  -0.065  10.732  0.00  0.00    +0.000 C 
ENDBRANCH  20  23
ENDBRANCH   2  15
BRANCH   4  25
ATOM     25  C   UNL     1      37.190   3.063  14.968  0.00  0.00    +0.000 C 
ATOM     26  O   UNL     1      37.166   3.607  16.098  0.00  0.00    +0.000 OA
ATOM     27  N   UNL     1      36.692   3.808  13.865  0.00  0.00    +0.000 NA
BRANCH  27  28
ATOM     28  C   UNL     1      36.196   5.129  14.037  0.00  0.00    +0.000 A 
ATOM     29  C   UNL     1      34.818   5.300  14.054  0.00  0.00    +0.000 A 
ATOM     30  C   UNL     1      34.298   6.547  14.207  0.00  0.00    +0.000 A 
ATOM     31  C   UNL     1      35.127   7.659  14.349  0.00  0.00    +0.000 A 
ATOM     32  C   UNL     1      36.517   7.496  14.336  0.00  0.00    +0.000 A 
ATOM     33  C   UNL     1      37.018   6.229  14.179  0.00  0.00    +0.000 A 
ENDBRANCH  27  28
ENDBRANCH   4  25
TORSDOF 7
ENDMDL
MODEL 5
REMARK VINA RESULT:      -6.7      4.216      9.454
REMARK  Name = 
REMARK  7 active torsions:
REMARK  status: ('A' for Active; 'I' for Inactive)
REMARK    1  A    between atoms: O_2  and  C_3
REMARK    2  A    between atoms: C_6  and  N_7
REMARK    3  A    between atoms: C_8  and  C_9
REMARK    4  A    between atoms: C_12  and  O_13
REMARK    5  A    between atoms: C_16  and  O_17
REMARK    6  A    between atoms: C_20  and  C_21
REMARK    7  A    between atoms: N_23  and  C_24
REMARK                            x       y       z     vdW  Elec       q    Type
REMARK                         _______ _______ _______ _____ _____    ______ ____
ROOT
ATOM      1  N   UNL     1      38.800   4.763  15.797  0.00  0.00    +0.000 N 
ATOM      2  C   UNL     1      38.387   4.939  17.041  0.00  0.00    +0.000 A 
ATOM      3  C   UNL     1      37.495   3.886  17.262  0.00  0.00    +0.000 A 
ATOM      4  C   UNL     1      37.403   3.117  16.157  0.00  0.00    +0.000 A 
ATOM      5  C   UNL     1      38.236   3.669  15.205  0.00  0.00    +0.000 A 
ATOM      6  C   UNL     1      38.465   3.156  13.813  0.00  0.00    +0.000 C 
ENDROOT
BRANCH   1  10
ATOM      7  C   UNL     1      41.341   7.267  13.513  0.00  0.00    +0.000 A 
ATOM      8  C   UNL     1      41.935   6.335  14.398  0.00  0.00    +0.000 A 
ATOM      9  C   UNL     1      41.057   5.541  15.106  0.00  0.00    +0.000 A 
ATOM     10  C   UNL     1      39.692   5.577  15.026  0.00  0.00    +0.000 A 
ATOM     11  C   UNL     1      39.166   6.498  14.148  0.00  0.00    +0.000 A 
ATOM     12  C   UNL     1      40.002   7.339  13.399  0.00  0.00    +0.000 A 
BRANCH   7  14
ATOM     13  C   UNL     1      42.661   9.305  13.363  0.00  0.00    +0.000 C 
ATOM     14  O   UNL     1      42.181   8.090  12.781  0.00  0.00    +0.000 OA
ENDBRANCH   7  14
ENDBRANCH   1  10
BRANCH   2  15
ATOM     15  C   UNL     1      38.748   5.969  18.023  0.00  0.00    +0.000 A 
ATOM     16  C   UNL     1      39.592   5.793  19.073  0.00  0.00    +0.000 A 
ATOM     17  C   UNL     1      39.923   6.795  19.967  0.00  0.00    +0.000 A 
ATOM     18  C   UNL     1      39.363   8.058  19.787  0.00  0.00    +0.000 A 
ATOM     19  C   UNL     1      38.499   8.245  18.717  0.00  0.00    +0.000 A 
ATOM     20  C   UNL     1      38.196   7.229  17.854  0.00  0.00    +0.000 A 
BRANCH  18  21
ATOM     21  O   UNL     1      39.611   9.142  20.601  0.00  0.00    +0.000 OA
ATOM     22  C   UNL     1      38.596  10.011  21.049  0.00  0.00    +0.000 C 
ENDBRANCH  18  21
BRANCH  20  23
ATOM     23  O   UNL     1      37.312   7.481  16.790  0.00  0.00    +0.000 OA
ATOM     24  C   UNL     1      37.193   8.803  16.309  0.00  0.00    +0.000 C 
ENDBRANCH  20  23
ENDBRANCH   2  15
BRANCH   4  25
ATOM     25  C   UNL     1      36.651   1.887  15.914  0.00  0.00    +0.000 C 
ATOM     26  O   UNL     1      35.611   1.893  15.212  0.00  0.00    +0.000 OA
ATOM     27  N   UNL     1      37.067   0.645  16.466  0.00  0.00    +0.000 NA
BRANCH  27  28
ATOM     28  C   UNL     1      36.337  -0.550  16.218  0.00  0.00    +0.000 A 
ATOM     29  C   UNL     1      35.290  -0.853  17.078  0.00  0.00    +0.000 A 
ATOM     30  C   UNL     1      34.569  -1.988  16.885  0.00  0.00    +0.000 A 
ATOM     31  C   UNL     1      34.863  -2.856  15.833  0.00  0.00    +0.000 A 
ATOM     32  C   UNL     1      35.915  -2.558  14.959  0.00  0.00    +0.000 A 
ATOM     33  C   UNL     1      36.628  -1.407  15.175  0.00  0.00    +0.000 A 
ENDBRANCH  27  28
ENDBRANCH   4  25
TORSDOF 7
ENDMDL
MODEL 6
REMARK VINA RESULT:      -6.6      4.606      7.755
REMARK  Name = 
REMARK  7 active torsions:
REMARK  status: ('A' for Active; 'I' for Inactive)
REMARK    1  A    between atoms: O_2  and  C_3
REMARK    2  A    between atoms: C_6  and  N_7
REMARK    3  A    between atoms: C_8  and  C_9
REMARK    4  A    between atoms: C_12  and  O_13
REMARK    5  A    between atoms: C_16  and  O_17
REMARK    6  A    between atoms: C_20  and  C_21
REMARK    7  A    between atoms: N_23  and  C_24
REMARK                            x       y       z     vdW  Elec       q    Type
REMARK                         _______ _______ _______ _____ _____    ______ ____
ROOT
ATOM      1  N   UNL     1      37.526   5.144  15.882  0.00  0.00    +0.000 N 
ATOM      2  C   UNL     1      37.597   3.987  16.519  0.00  0.00    +0.000 A 
ATOM      3  C   UNL     1      38.387   4.256  17.640  0.00  0.00    +0.000 A 
ATOM      4  C   UNL     1      38.759   5.553  17.643  0.00  0.00    +0.000 A 
ATOM      5  C   UNL     1      38.213   6.138  16.519  0.00  0.00    +0.000 A 
ATOM      6  C   UNL     1      38.354   7.572  16.100  0.00  0.00    +0.000 C 
ENDROOT
BRANCH   1  10
ATOM      7  C   UNL     1      35.531   6.118  12.274  0.00  0.00    +0.000 A 
ATOM      8  C   UNL     1      36.880   5.697  12.203  0.00  0.00    +0.000 A 
ATOM      9  C   UNL     1      37.472   5.385  13.409  0.00  0.00    +0.000 A 
ATOM     10  C   UNL     1      36.878   5.444  14.640  0.00  0.00    +0.000 A 
ATOM     11  C   UNL     1      35.565   5.856  14.653  0.00  0.00    +0.000 A 
ATOM     12  C   UNL     1      34.903   6.193  13.463  0.00  0.00    +0.000 A 
BRANCH   7  14
ATOM     13  C   UNL     1      33.713   7.256  11.126  0.00  0.00    +0.000 C 
ATOM     14  O   UNL     1      34.892   6.447  11.090  0.00  0.00    +0.000 OA
ENDBRANCH   7  14
ENDBRANCH   1  10
BRANCH   2  15
ATOM     15  C   UNL     1      37.002   2.686  16.190  0.00  0.00    +0.000 A 
ATOM     16  C   UNL     1      35.757   2.277  16.550  0.00  0.00    +0.000 A 
ATOM     17  C   UNL     1      35.223   1.048  16.204  0.00  0.00    +0.000 A 
ATOM     18  C   UNL     1      35.999   0.176  15.444  0.00  0.00    +0.000 A 
ATOM     19  C   UNL     1      37.272   0.587  15.073  0.00  0.00    +0.000 A 
ATOM     20  C   UNL     1      37.766   1.810  15.434  0.00  0.00    +0.000 A 
BRANCH  18  21
ATOM     21  O   UNL     1      35.588  -1.072  15.030  0.00  0.00    +0.000 OA
ATOM     22  C   UNL     1      35.586  -2.198  15.878  0.00  0.00    +0.000 C 
ENDBRANCH  18  21
BRANCH  20  23
ATOM     23  O   UNL     1      39.064   2.167  15.029  0.00  0.00    +0.000 OA
ATOM     24  C   UNL     1      39.827   1.228  14.300  0.00  0.00    +0.000 C 
ENDBRANCH  20  23
ENDBRANCH   2  15
BRANCH   4  25
ATOM     25  C   UNL     1      39.534   6.318  18.620  0.00  0.00    +0.000 C 
ATOM     26  O   UNL     1      38.972   6.884  19.588  0.00  0.00    +0.000 OA
ATOM     27  N   UNL     1      40.944   6.449  18.506  0.00  0.00    +0.000 NA
BRANCH  27  28
ATOM     28  C   UNL     1      41.692   7.185  19.465  0.00  0.00    +0.000 A 
ATOM     29  C   UNL     1      42.367   6.466  20.443  0.00  0.00    +0.000 A 
ATOM     30  C   UNL     1      43.088   7.128  21.385  0.00  0.00    +0.000 A 
ATOM     31  C   UNL     1      43.163   8.520  21.387  0.00  0.00    +0.000 A 
ATOM     32  C   UNL     1      42.488   9.254  20.405  0.00  0.00    +0.000 A 
ATOM     33  C   UNL     1      41.766   8.564  19.465  0.00  0.00    +0.000 A 
ENDBRANCH  27  28
ENDBRANCH   4  25
TORSDOF 7
ENDMDL
MODEL 7
REMARK VINA RESULT:      -6.6     20.414     23.194
REMARK  Name = 
REMARK  7 active torsions:
REMARK  status: ('A' for Active; 'I' for Inactive)
REMARK    1  A    between atoms: O_2  and  C_3
REMARK    2  A    between atoms: C_6  and  N_7
REMARK    3  A    between atoms: C_8  and  C_9
REMARK    4  A    between atoms: C_12  and  O_13
REMARK    5  A    between atoms: C_16  and  O_17
REMARK    6  A    between atoms: C_20  and  C_21
REMARK    7  A    between atoms: N_23  and  C_24
REMARK                            x       y       z     vdW  Elec       q    Type
REMARK                         _______ _______ _______ _____ _____    ______ ____
ROOT
ATOM      1  N   UNL     1      26.835  19.495  18.428  0.00  0.00    +0.000 N 
ATOM      2  C   UNL     1      26.775  19.131  19.698  0.00  0.00    +0.000 A 
ATOM      3  C   UNL     1      25.410  19.140  19.997  0.00  0.00    +0.000 A 
ATOM      4  C   UNL     1      24.700  19.502  18.908  0.00  0.00    +0.000 A 
ATOM      5  C   UNL     1      25.604  19.734  17.890  0.00  0.00    +0.000 A 
ATOM      6  C   UNL     1      25.279  20.159  16.488  0.00  0.00    +0.000 C 
ENDROOT
BRANCH   1  10
ATOM      7  C   UNL     1      30.230  19.984  15.941  0.00  0.00    +0.000 A 
ATOM      8  C   UNL     1      29.618  21.142  16.479  0.00  0.00    +0.000 A 
ATOM      9  C   UNL     1      28.524  20.918  17.288  0.00  0.00    +0.000 A 
ATOM     10  C   UNL     1      27.994  19.700  17.609  0.00  0.00    +0.000 A 
ATOM     11  C   UNL     1      28.628  18.606  17.064  0.00  0.00    +0.000 A 
ATOM     12  C   UNL     1      29.744  18.762  16.230  0.00  0.00    +0.000 A 
BRANCH   7  14
ATOM     13  C   UNL     1      31.835  19.044  14.374  0.00  0.00    +0.000 C 
ATOM     14  O   UNL     1      31.332  20.156  15.119  0.00  0.00    +0.000 OA
ENDBRANCH   7  14
ENDBRANCH   1  10
BRANCH   2  15
ATOM     15  C   UNL     1      27.848  18.775  20.634  0.00  0.00    +0.000 A 
ATOM     16  C   UNL     1      28.569  19.655  21.376  0.00  0.00    +0.000 A 
ATOM     17  C   UNL     1      29.562  19.278  22.264  0.00  0.00    +0.000 A 
ATOM     18  C   UNL     1      29.843  17.922  22.410  0.00  0.00    +0.000 A 
ATOM     19  C   UNL     1      29.111  17.016  21.654  0.00  0.00    +0.000 A 
ATOM     20  C   UNL     1      28.137  17.428  20.787  0.00  0.00    +0.000 A 
BRANCH  18  21
ATOM     21  O   UNL     1      30.801  17.413  23.259  0.00  0.00    +0.000 OA
ATOM     22  C   UNL     1      32.085  17.028  22.823  0.00  0.00    +0.000 C 
ENDBRANCH  18  21
BRANCH  20  23
ATOM     23  O   UNL     1      27.431  16.462  20.048  0.00  0.00    +0.000 OA
ATOM     24  C   UNL     1      26.599  15.555  20.741  0.00  0.00    +0.000 C 
ENDBRANCH  20  23
ENDBRANCH   2  15
BRANCH   4  25
ATOM     25  C   UNL     1      23.256  19.606  18.705  0.00  0.00    +0.000 C 
ATOM     26  O   UNL     1      22.647  20.677  18.937  0.00  0.00    +0.000 OA
ATOM     27  N   UNL     1      22.493  18.500  18.242  0.00  0.00    +0.000 NA
BRANCH  27  28
ATOM     28  C   UNL     1      21.090  18.610  18.037  0.00  0.00    +0.000 A 
ATOM     29  C   UNL     1      20.261  18.353  19.121  0.00  0.00    +0.000 A 
ATOM     30  C   UNL     1      18.913  18.438  18.970  0.00  0.00    +0.000 A 
ATOM     31  C   UNL     1      18.348  18.782  17.742  0.00  0.00    +0.000 A 
ATOM     32  C   UNL     1      19.175  19.046  16.645  0.00  0.00    +0.000 A 
ATOM     33  C   UNL     1      20.532  18.952  16.821  0.00  0.00    +0.000 A 
ENDBRANCH  27  28
ENDBRANCH   4  25
TORSDOF 7
ENDMDL
MODEL 8
REMARK VINA RESULT:      -6.6      3.761      6.766
REMARK  Name = 
REMARK  7 active torsions:
REMARK  status: ('A' for Active; 'I' for Inactive)
REMARK    1  A    between atoms: O_2  and  C_3
REMARK    2  A    between atoms: C_6  and  N_7
REMARK    3  A    between atoms: C_8  and  C_9
REMARK    4  A    between atoms: C_12  and  O_13
REMARK    5  A    between atoms: C_16  and  O_17
REMARK    6  A    between atoms: C_20  and  C_21
REMARK    7  A    between atoms: N_23  and  C_24
REMARK                            x       y       z     vdW  Elec       q    Type
REMARK                         _______ _______ _______ _____ _____    ______ ____
ROOT
ATOM      1  N   UNL     1      37.778   4.784  14.569  0.00  0.00    +0.000 N 
ATOM      2  C   UNL     1      37.548   3.608  14.010  0.00  0.00    +0.000 A 
ATOM      3  C   UNL     1      36.741   3.900  12.907  0.00  0.00    +0.000 A 
ATOM      4  C   UNL     1      36.517   5.229  12.837  0.00  0.00    +0.000 A 
ATOM      5  C   UNL     1      37.178   5.811  13.899  0.00  0.00    +0.000 A 
ATOM      6  C   UNL     1      37.218   7.274  14.232  0.00  0.00    +0.000 C 
ENDROOT
BRANCH   1  10
ATOM      7  C   UNL     1      40.013   5.758  18.033  0.00  0.00    +0.000 A 
ATOM      8  C   UNL     1      38.739   5.165  18.201  0.00  0.00    +0.000 A 
ATOM      9  C   UNL     1      38.064   4.861  17.037  0.00  0.00    +0.000 A 
ATOM     10  C   UNL     1      38.513   5.080  15.763  0.00  0.00    +0.000 A 
ATOM     11  C   UNL     1      39.759   5.655  15.656  0.00  0.00    +0.000 A 
ATOM     12  C   UNL     1      40.498   5.992  16.799  0.00  0.00    +0.000 A 
BRANCH   7  14
ATOM     13  C   UNL     1      40.112   6.876  20.192  0.00  0.00    +0.000 C 
ATOM     14  O   UNL     1      40.730   6.085  19.173  0.00  0.00    +0.000 OA
ENDBRANCH   7  14
ENDBRANCH   1  10
BRANCH   2  15
ATOM     15  C   UNL     1      38.008   2.268  14.396  0.00  0.00    +0.000 A 
ATOM     16  C   UNL     1      39.272   1.795  14.236  0.00  0.00    +0.000 A 
ATOM     17  C   UNL     1      39.673   0.531  14.630  0.00  0.00    +0.000 A 
ATOM     18  C   UNL     1      38.734  -0.309  15.226  0.00  0.00    +0.000 A 
ATOM     19  C   UNL     1      37.441   0.168  15.391  0.00  0.00    +0.000 A 
ATOM     20  C   UNL     1      37.082   1.424  14.988  0.00  0.00    +0.000 A 
BRANCH  18  21
ATOM     21  O   UNL     1      39.002  -1.587  15.666  0.00  0.00    +0.000 OA
ATOM     22  C   UNL     1      38.590  -2.065  16.926  0.00  0.00    +0.000 C 
ENDBRANCH  18  21
BRANCH  20  23
ATOM     23  O   UNL     1      35.756   1.848  15.182  0.00  0.00    +0.000 OA
ATOM     24  C   UNL     1      35.301   2.063  16.502  0.00  0.00    +0.000 C 
ENDBRANCH  20  23
ENDBRANCH   2  15
BRANCH   4  25
ATOM     25  C   UNL     1      35.788   6.020  11.846  0.00  0.00    +0.000 C 
ATOM     26  O   UNL     1      34.653   6.488  12.103  0.00  0.00    +0.000 OA
ATOM     27  N   UNL     1      36.335   6.281  10.560  0.00  0.00    +0.000 NA
BRANCH  27  28
ATOM     28  C   UNL     1      35.624   7.059   9.606  0.00  0.00    +0.000 A 
ATOM     29  C   UNL     1      34.901   6.380   8.634  0.00  0.00    +0.000 A 
ATOM     30  C   UNL     1      34.214   7.082   7.695  0.00  0.00    +0.000 A 
ATOM     31  C   UNL     1      34.220   8.476   7.692  0.00  0.00    +0.000 A 
ATOM     32  C   UNL     1      34.943   9.170   8.669  0.00  0.00    +0.000 A 
ATOM     33  C   UNL     1      35.631   8.440   9.605  0.00  0.00    +0.000 A 
ENDBRANCH  27  28
ENDBRANCH   4  25
TORSDOF 7
ENDMDL
MODEL 9
REMARK VINA RESULT:      -6.6      2.112      5.340
REMARK  Name = 
REMARK  7 active torsions:
REMARK  status: ('A' for Active; 'I' for Inactive)
REMARK    1  A    between atoms: O_2  and  C_3
REMARK    2  A    between atoms: C_6  and  N_7
REMARK    3  A    between atoms: C_8  and  C_9
REMARK    4  A    between atoms: C_12  and  O_13
REMARK    5  A    between atoms: C_16  and  O_17
REMARK    6  A    between atoms: C_20  and  C_21
REMARK    7  A    between atoms: N_23  and  C_24
REMARK                            x       y       z     vdW  Elec       q    Type
REMARK                         _______ _______ _______ _____ _____    ______ ____
ROOT
ATOM      1  N   UNL     1      38.110  -0.890  14.638  0.00  0.00    +0.000 N 
ATOM      2  C   UNL     1      39.036  -0.634  13.728  0.00  0.00    +0.000 A 
ATOM      3  C   UNL     1      39.158   0.758  13.740  0.00  0.00    +0.000 A 
ATOM      4  C   UNL     1      38.313   1.288  14.648  0.00  0.00    +0.000 A 
ATOM      5  C   UNL     1      37.632   0.240  15.234  0.00  0.00    +0.000 A 
ATOM      6  C   UNL     1      36.586   0.343  16.306  0.00  0.00    +0.000 C 
ENDROOT
BRANCH   1  10
ATOM      7  C   UNL     1      36.514  -4.614  15.875  0.00  0.00    +0.000 A 
ATOM      8  C   UNL     1      35.815  -3.878  14.888  0.00  0.00    +0.000 A 
ATOM      9  C   UNL     1      36.389  -2.679  14.520  0.00  0.00    +0.000 A 
ATOM     10  C   UNL     1      37.551  -2.155  15.015  0.00  0.00    +0.000 A 
ATOM     11  C   UNL     1      38.193  -2.912  15.968  0.00  0.00    +0.000 A 
ATOM     12  C   UNL     1      37.663  -4.139  16.391  0.00  0.00    +0.000 A 
BRANCH   7  14
ATOM     13  C   UNL     1      34.792  -6.318  15.649  0.00  0.00    +0.000 C 
ATOM     14  O   UNL     1      35.977  -5.825  16.281  0.00  0.00    +0.000 OA
ENDBRANCH   7  14
ENDBRANCH   1  10
BRANCH   2  15
ATOM     15  C   UNL     1      39.806  -1.549  12.876  0.00  0.00    +0.000 A 
ATOM     16  C   UNL     1      39.387  -2.057  11.688  0.00  0.00    +0.000 A 
ATOM     17  C   UNL     1      40.151  -2.902  10.903  0.00  0.00    +0.000 A 
ATOM     18  C   UNL     1      41.423  -3.256  11.349  0.00  0.00    +0.000 A 
ATOM     19  C   UNL     1      41.857  -2.741  12.563  0.00  0.00    +0.000 A 
ATOM     20  C   UNL     1      41.072  -1.908  13.311  0.00  0.00    +0.000 A 
BRANCH  18  21
ATOM     21  O   UNL     1      42.285  -4.084  10.665  0.00  0.00    +0.000 OA
ATOM     22  C   UNL     1      43.680  -3.889  10.644  0.00  0.00    +0.000 C 
ENDBRANCH  18  21
BRANCH  20  23
ATOM     23  O   UNL     1      41.568  -1.421  14.533  0.00  0.00    +0.000 OA
ATOM     24  C   UNL     1      42.954  -1.173  14.649  0.00  0.00    +0.000 C 
ENDBRANCH  20  23
ENDBRANCH   2  15
BRANCH   4  25
ATOM     25  C   UNL     1      38.112   2.676  15.063  0.00  0.00    +0.000 C 
ATOM     26  O   UNL     1      37.071   3.300  14.746  0.00  0.00    +0.000 OA
ATOM     27  N   UNL     1      39.086   3.366  15.834  0.00  0.00    +0.000 NA
BRANCH  27  28
ATOM     28  C   UNL     1      38.878   4.713  16.242  0.00  0.00    +0.000 A 
ATOM     29  C   UNL     1      38.614   4.943  17.586  0.00  0.00    +0.000 A 
ATOM     30  C   UNL     1      38.401   6.212  18.021  0.00  0.00    +0.000 A 
ATOM     31  C   UNL     1      38.445   7.291  17.138  0.00  0.00    +0.000 A 
ATOM     32  C   UNL     1      38.713   7.070  15.783  0.00  0.00    +0.000 A 
ATOM     33  C   UNL     1      38.924   5.780  15.368  0.00  0.00    +0.000 A 
ENDBRANCH  27  28
ENDBRANCH   4  25
TORSDOF 7
ENDMDL
MODEL 10
REMARK VINA RESULT:      -6.4      4.373     10.055
REMARK  Name = 
REMARK  7 active torsions:
REMARK  status: ('A' for Active; 'I' for Inactive)
REMARK    1  A    between atoms: O_2  and  C_3
REMARK    2  A    between atoms: C_6  and  N_7
REMARK    3  A    between atoms: C_8  and  C_9
REMARK    4  A    between atoms: C_12  and  O_13
REMARK    5  A    between atoms: C_16  and  O_17
REMARK    6  A    between atoms: C_20  and  C_21
REMARK    7  A    between atoms: N_23  and  C_24
REMARK                            x       y       z     vdW  Elec       q    Type
REMARK                         _______ _______ _______ _____ _____    ______ ____
ROOT
ATOM      1  N   UNL     1      38.172   5.633  15.996  0.00  0.00    +0.000 N 
ATOM      2  C   UNL     1      38.599   5.459  17.236  0.00  0.00    +0.000 A 
ATOM      3  C   UNL     1      37.970   4.284  17.657  0.00  0.00    +0.000 A 
ATOM      4  C   UNL     1      37.197   3.793  16.667  0.00  0.00    +0.000 A 
ATOM      5  C   UNL     1      37.316   4.650  15.592  0.00  0.00    +0.000 A 
ATOM      6  C   UNL     1      36.637   4.511  14.260  0.00  0.00    +0.000 C 
ENDROOT
BRANCH   1  10
ATOM      7  C   UNL     1      38.966   8.898  13.416  0.00  0.00    +0.000 A 
ATOM      8  C   UNL     1      39.813   7.765  13.347  0.00  0.00    +0.000 A 
ATOM      9  C   UNL     1      39.498   6.731  14.204  0.00  0.00    +0.000 A 
ATOM     10  C   UNL     1      38.459   6.708  15.093  0.00  0.00    +0.000 A 
ATOM     11  C   UNL     1      37.665   7.831  15.118  0.00  0.00    +0.000 A 
ATOM     12  C   UNL     1      37.930   8.921  14.276  0.00  0.00    +0.000 A 
BRANCH   7  14
ATOM     13  C   UNL     1      38.633  11.235  12.828  0.00  0.00    +0.000 C 
ATOM     14  O   UNL     1      39.242   9.965  12.577  0.00  0.00    +0.000 OA
ENDBRANCH   7  14
ENDBRANCH   1  10
BRANCH   2  15
ATOM     15  C   UNL     1      39.526   6.263  18.041  0.00  0.00    +0.000 A 
ATOM     16  C   UNL     1      40.871   6.086  18.104  0.00  0.00    +0.000 A 
ATOM     17  C   UNL     1      41.715   6.879  18.861  0.00  0.00    +0.000 A 
ATOM     18  C   UNL     1      41.162   7.920  19.604  0.00  0.00    +0.000 A 
ATOM     19  C   UNL     1      39.788   8.106  19.545  0.00  0.00    +0.000 A 
ATOM     20  C   UNL     1      38.985   7.301  18.784  0.00  0.00    +0.000 A 
BRANCH  18  21
ATOM     21  O   UNL     1      41.887   8.783  20.395  0.00  0.00    +0.000 OA
ATOM     22  C   UNL     1      41.417  10.057  20.771  0.00  0.00    +0.000 C 
ENDBRANCH  18  21
BRANCH  20  23
ATOM     23  O   UNL     1      37.600   7.540  18.768  0.00  0.00    +0.000 OA
ATOM     24  C   UNL     1      37.112   8.727  19.359  0.00  0.00    +0.000 C 
ENDBRANCH  20  23
ENDBRANCH   2  15
BRANCH   4  25
ATOM     25  C   UNL     1      36.393   2.572  16.605  0.00  0.00    +0.000 C 
ATOM     26  O   UNL     1      35.158   2.623  16.388  0.00  0.00    +0.000 OA
ATOM     27  N   UNL     1      36.979   1.291  16.789  0.00  0.00    +0.000 NA
BRANCH  27  28
ATOM     28  C   UNL     1      36.193   0.108  16.717  0.00  0.00    +0.000 A 
ATOM     29  C   UNL     1      36.444  -0.766  15.667  0.00  0.00    +0.000 A 
ATOM     30  C   UNL     1      35.711  -1.906  15.553  0.00  0.00    +0.000 A 
ATOM     31  C   UNL     1      34.711  -2.212  16.475  0.00  0.00    +0.000 A 
ATOM     32  C   UNL     1      34.453  -1.339  17.537  0.00  0.00    +0.000 A 
ATOM     33  C   UNL     1      35.203  -0.195  17.631  0.00  0.00    +0.000 A 
ENDBRANCH  27  28
ENDBRANCH   4  25
TORSDOF 7
ENDMDL
