MODEL 1
REMARK VINA RESULT:      -7.3      0.000      0.000
REMARK  Name = 
REMARK  1 active torsions:
REMARK  status: ('A' for Active; 'I' for Inactive)
REMARK    1  A    between atoms: N_2  and  C_3
REMARK                            x       y       z     vdW  Elec       q    Type
REMARK                         _______ _______ _______ _____ _____    ______ ____
ROOT
ATOM      1  C   UNL     1      13.906  24.231  21.413  0.00  0.00    +0.000 A 
ATOM      2  C   UNL     1      14.607  23.430  20.527  0.00  0.00    +0.000 A 
ATOM      3  C   UNL     1      14.087  22.232  20.098  0.00  0.00    +0.000 A 
ATOM      4  C   UNL     1      12.828  21.775  20.540  0.00  0.00    +0.000 A 
ATOM      5  C   UNL     1      12.172  22.569  21.396  0.00  0.00    +0.000 A 
ATOM      6  C   UNL     1      12.691  23.761  21.821  0.00  0.00    +0.000 A 
ATOM      7  C   UNL     1      11.805  24.568  22.837  0.00  0.00    +0.000 C 
ATOM      8  C   UNL     1      12.447  26.036  22.521  0.00  0.00    +0.000 C 
ATOM      9  C   UNL     1      10.547  24.772  21.825  0.00  0.00    +0.000 C 
ATOM     10  C   UNL     1      10.012  23.509  21.349  0.00  0.00    +0.000 C 
ATOM     11  C   UNL     1      10.207  23.406  19.851  0.00  0.00    +0.000 C 
ATOM     12  C   UNL     1       8.575  23.258  21.718  0.00  0.00    +0.000 C 
ATOM     13  O   UNL     1       8.052  23.966  22.559  0.00  0.00    +0.000 OA
ATOM     14  N   UNL     1       8.024  22.172  20.986  0.00  0.00    +0.000 NA
ATOM     15  C   UNL     1       8.929  21.100  20.639  0.00  0.00    +0.000 A 
ATOM     16  C   UNL     1       8.467  20.057  19.843  0.00  0.00    +0.000 A 
ATOM     17  C   UNL     1       9.314  19.061  19.420  0.00  0.00    +0.000 A 
ATOM     18  C   UNL     1      10.630  19.153  19.826  0.00  0.00    +0.000 A 
ATOM     19  C   UNL     1      11.120  20.156  20.606  0.00  0.00    +0.000 A 
ATOM     20  C   UNL     1      10.229  21.118  20.997  0.00  0.00    +0.000 A 
ATOM     21  C   UNL     1      10.772  22.237  21.998  0.00  0.00    +0.000 C 
ENDROOT
BRANCH   1  23
ATOM     22  C   UNL     1      15.720  25.950  21.626  0.00  0.00    +0.000 C 
ATOM     23  N   UNL     1      14.391  25.469  21.886  0.00  0.00    +0.000 NA
ENDBRANCH   1  23
TORSDOF 1
ENDMDL
MODEL 2
REMARK VINA RESULT:      -7.1     15.398     18.831
REMARK  Name = 
REMARK  1 active torsions:
REMARK  status: ('A' for Active; 'I' for Inactive)
REMARK    1  A    between atoms: N_2  and  C_3
REMARK                            x       y       z     vdW  Elec       q    Type
REMARK                         _______ _______ _______ _____ _____    ______ ____
ROOT
ATOM      1  C   UNL     1      31.103  22.335  29.340  0.00  0.00    +0.000 A 
ATOM      2  C   UNL     1      31.611  22.328  28.051  0.00  0.00    +0.000 A 
ATOM      3  C   UNL     1      30.778  22.436  26.964  0.00  0.00    +0.000 A 
ATOM      4  C   UNL     1      29.380  22.559  27.118  0.00  0.00    +0.000 A 
ATOM      5  C   UNL     1      28.916  22.564  28.373  0.00  0.00    +0.000 A 
ATOM      6  C   UNL     1      29.748  22.456  29.454  0.00  0.00    +0.000 A 
ATOM      7  C   UNL     1      29.046  22.462  30.859  0.00  0.00    +0.000 C 
ATOM      8  C   UNL     1      30.343  22.964  31.715  0.00  0.00    +0.000 C 
ATOM      9  C   UNL     1      28.415  23.954  30.717  0.00  0.00    +0.000 C 
ATOM     10  C   UNL     1      27.554  24.081  29.554  0.00  0.00    +0.000 C 
ATOM     11  C   UNL     1      28.152  25.078  28.585  0.00  0.00    +0.000 C 
ATOM     12  C   UNL     1      26.126  24.433  29.868  0.00  0.00    +0.000 C 
ATOM     13  O   UNL     1      25.738  24.347  31.019  0.00  0.00    +0.000 OA
ATOM     14  N   UNL     1      25.413  24.834  28.706  0.00  0.00    +0.000 NA
ATOM     15  C   UNL     1      25.796  24.203  27.463  0.00  0.00    +0.000 A 
ATOM     16  C   UNL     1      25.199  24.624  26.280  0.00  0.00    +0.000 A 
ATOM     17  C   UNL     1      25.592  24.112  25.066  0.00  0.00    +0.000 A 
ATOM     18  C   UNL     1      26.600  23.168  25.090  0.00  0.00    +0.000 A 
ATOM     19  C   UNL     1      27.208  22.730  26.227  0.00  0.00    +0.000 A 
ATOM     20  C   UNL     1      26.773  23.275  27.404  0.00  0.00    +0.000 A 
ATOM     21  C   UNL     1      27.407  22.687  28.746  0.00  0.00    +0.000 C 
ENDROOT
BRANCH   1  23
ATOM     22  C   UNL     1      33.221  21.632  30.486  0.00  0.00    +0.000 C 
ATOM     23  N   UNL     1      31.912  22.226  30.491  0.00  0.00    +0.000 NA
ENDBRANCH   1  23
TORSDOF 1
ENDMDL
MODEL 3
REMARK VINA RESULT:      -7.0     15.699     18.146
REMARK  Name = 
REMARK  1 active torsions:
REMARK  status: ('A' for Active; 'I' for Inactive)
REMARK    1  A    between atoms: N_2  and  C_3
REMARK                            x       y       z     vdW  Elec       q    Type
REMARK                         _______ _______ _______ _____ _____    ______ ____
ROOT
ATOM      1  C   UNL     1      30.204  22.649  28.674  0.00  0.00    +0.000 A 
ATOM      2  C   UNL     1      31.343  22.671  27.886  0.00  0.00    +0.000 A 
ATOM      3  C   UNL     1      31.253  22.775  26.518  0.00  0.00    +0.000 A 
ATOM      4  C   UNL     1      30.004  22.864  25.868  0.00  0.00    +0.000 A 
ATOM      5  C   UNL     1      28.919  22.840  26.653  0.00  0.00    +0.000 A 
ATOM      6  C   UNL     1      29.012  22.737  28.014  0.00  0.00    +0.000 A 
ATOM      7  C   UNL     1      27.647  22.708  28.791  0.00  0.00    +0.000 C 
ATOM      8  C   UNL     1      28.235  23.229  30.223  0.00  0.00    +0.000 C 
ATOM      9  C   UNL     1      27.162  24.187  28.319  0.00  0.00    +0.000 C 
ATOM     10  C   UNL     1      27.091  24.310  26.874  0.00  0.00    +0.000 C 
ATOM     11  C   UNL     1      28.100  25.333  26.399  0.00  0.00    +0.000 C 
ATOM     12  C   UNL     1      25.720  24.624  26.339  0.00  0.00    +0.000 C 
ATOM     13  O   UNL     1      24.760  24.513  27.080  0.00  0.00    +0.000 OA
ATOM     14  N   UNL     1      25.764  25.023  24.976  0.00  0.00    +0.000 NA
ATOM     15  C   UNL     1      26.791  24.419  24.157  0.00  0.00    +0.000 A 
ATOM     16  C   UNL     1      26.941  24.841  22.842  0.00  0.00    +0.000 A 
ATOM     17  C   UNL     1      27.957  24.355  22.053  0.00  0.00    +0.000 A 
ATOM     18  C   UNL     1      28.806  23.435  22.635  0.00  0.00    +0.000 A 
ATOM     19  C   UNL     1      28.690  22.996  23.919  0.00  0.00    +0.000 A 
ATOM     20  C   UNL     1      27.660  23.514  24.654  0.00  0.00    +0.000 A 
ATOM     21  C   UNL     1      27.455  22.924  26.123  0.00  0.00    +0.000 C 
ENDROOT
BRANCH   1  23
ATOM     22  C   UNL     1      31.365  22.028  30.809  0.00  0.00    +0.000 C 
ATOM     23  N   UNL     1      30.238  22.544  30.080  0.00  0.00    +0.000 NA
ENDBRANCH   1  23
TORSDOF 1
ENDMDL
MODEL 4
REMARK VINA RESULT:      -7.0     16.077     19.662
REMARK  Name = 
REMARK  1 active torsions:
REMARK  status: ('A' for Active; 'I' for Inactive)
REMARK    1  A    between atoms: N_2  and  C_3
REMARK                            x       y       z     vdW  Elec       q    Type
REMARK                         _______ _______ _______ _____ _____    ______ ____
ROOT
ATOM      1  C   UNL     1      32.956  23.884  27.086  0.00  0.00    +0.000 A 
ATOM      2  C   UNL     1      33.293  24.559  25.925  0.00  0.00    +0.000 A 
ATOM      3  C   UNL     1      32.465  24.535  24.828  0.00  0.00    +0.000 A 
ATOM      4  C   UNL     1      31.245  23.826  24.844  0.00  0.00    +0.000 A 
ATOM      5  C   UNL     1      30.943  23.182  25.978  0.00  0.00    +0.000 A 
ATOM      6  C   UNL     1      31.769  23.209  27.068  0.00  0.00    +0.000 A 
ATOM      7  C   UNL     1      31.278  22.391  28.317  0.00  0.00    +0.000 C 
ATOM      8  C   UNL     1      32.140  23.215  29.432  0.00  0.00    +0.000 C 
ATOM      9  C   UNL     1      29.922  23.257  28.553  0.00  0.00    +0.000 C 
ATOM     10  C   UNL     1      29.056  23.256  27.387  0.00  0.00    +0.000 C 
ATOM     11  C   UNL     1      28.939  24.662  26.839  0.00  0.00    +0.000 C 
ATOM     12  C   UNL     1      27.695  22.658  27.619  0.00  0.00    +0.000 C 
ATOM     13  O   UNL     1      27.499  22.018  28.637  0.00  0.00    +0.000 OA
ATOM     14  N   UNL     1      26.802  22.950  26.553  0.00  0.00    +0.000 NA
ATOM     15  C   UNL     1      27.382  23.058  25.234  0.00  0.00    +0.000 A 
ATOM     16  C   UNL     1      26.572  23.434  24.169  0.00  0.00    +0.000 A 
ATOM     17  C   UNL     1      27.097  23.631  22.913  0.00  0.00    +0.000 A 
ATOM     18  C   UNL     1      28.456  23.433  22.774  0.00  0.00    +0.000 A 
ATOM     19  C   UNL     1      29.282  23.063  23.792  0.00  0.00    +0.000 A 
ATOM     20  C   UNL     1      28.702  22.882  25.017  0.00  0.00    +0.000 A 
ATOM     21  C   UNL     1      29.645  22.344  26.187  0.00  0.00    +0.000 C 
ENDROOT
BRANCH   1  23
ATOM     22  C   UNL     1      35.057  24.507  28.306  0.00  0.00    +0.000 C 
ATOM     23  N   UNL     1      33.767  23.875  28.239  0.00  0.00    +0.000 NA
ENDBRANCH   1  23
TORSDOF 1
ENDMDL
MODEL 5
REMARK VINA RESULT:      -6.9     17.026     19.146
REMARK  Name = 
REMARK  1 active torsions:
REMARK  status: ('A' for Active; 'I' for Inactive)
REMARK    1  A    between atoms: N_2  and  C_3
REMARK                            x       y       z     vdW  Elec       q    Type
REMARK                         _______ _______ _______ _____ _____    ______ ____
ROOT
ATOM      1  C   UNL     1      28.805  24.021  24.023  0.00  0.00    +0.000 A 
ATOM      2  C   UNL     1      27.661  24.802  24.029  0.00  0.00    +0.000 A 
ATOM      3  C   UNL     1      26.847  24.852  25.135  0.00  0.00    +0.000 A 
ATOM      4  C   UNL     1      27.144  24.116  26.301  0.00  0.00    +0.000 A 
ATOM      5  C   UNL     1      28.256  23.370  26.270  0.00  0.00    +0.000 A 
ATOM      6  C   UNL     1      29.064  23.322  25.167  0.00  0.00    +0.000 A 
ATOM      7  C   UNL     1      30.323  22.388  25.284  0.00  0.00    +0.000 C 
ATOM      8  C   UNL     1      31.217  23.134  24.139  0.00  0.00    +0.000 C 
ATOM      9  C   UNL     1      31.010  23.199  26.515  0.00  0.00    +0.000 C 
ATOM     10  C   UNL     1      30.143  23.277  27.677  0.00  0.00    +0.000 C 
ATOM     11  C   UNL     1      29.779  24.722  27.943  0.00  0.00    +0.000 C 
ATOM     12  C   UNL     1      30.697  22.629  28.917  0.00  0.00    +0.000 C 
ATOM     13  O   UNL     1      31.667  21.900  28.816  0.00  0.00    +0.000 OA
ATOM     14  N   UNL     1      29.959  22.991  30.076  0.00  0.00    +0.000 NA
ATOM     15  C   UNL     1      28.544  23.226  29.895  0.00  0.00    +0.000 A 
ATOM     16  C   UNL     1      27.791  23.673  30.974  0.00  0.00    +0.000 A 
ATOM     17  C   UNL     1      26.461  23.990  30.827  0.00  0.00    +0.000 A 
ATOM     18  C   UNL     1      25.924  23.837  29.565  0.00  0.00    +0.000 A 
ATOM     19  C   UNL     1      26.629  23.400  28.484  0.00  0.00    +0.000 A 
ATOM     20  C   UNL     1      27.947  23.101  28.692  0.00  0.00    +0.000 A 
ATOM     21  C   UNL     1      28.749  22.487  27.456  0.00  0.00    +0.000 C 
ENDROOT
BRANCH   1  23
ATOM     22  C   UNL     1      29.372  24.481  21.624  0.00  0.00    +0.000 C 
ATOM     23  N   UNL     1      29.675  23.932  22.917  0.00  0.00    +0.000 NA
ENDBRANCH   1  23
TORSDOF 1
ENDMDL
MODEL 6
REMARK VINA RESULT:      -6.8     14.180     16.966
REMARK  Name = 
REMARK  1 active torsions:
REMARK  status: ('A' for Active; 'I' for Inactive)
REMARK    1  A    between atoms: N_2  and  C_3
REMARK                            x       y       z     vdW  Elec       q    Type
REMARK                         _______ _______ _______ _____ _____    ______ ____
ROOT
ATOM      1  C   UNL     1      24.407  25.586  27.541  0.00  0.00    +0.000 A 
ATOM      2  C   UNL     1      24.930  25.345  28.801  0.00  0.00    +0.000 A 
ATOM      3  C   UNL     1      26.012  24.515  28.969  0.00  0.00    +0.000 A 
ATOM      4  C   UNL     1      26.629  23.879  27.870  0.00  0.00    +0.000 A 
ATOM      5  C   UNL     1      26.104  24.129  26.664  0.00  0.00    +0.000 A 
ATOM      6  C   UNL     1      25.027  24.956  26.500  0.00  0.00    +0.000 A 
ATOM      7  C   UNL     1      24.522  25.134  25.023  0.00  0.00    +0.000 C 
ATOM      8  C   UNL     1      23.782  26.572  25.249  0.00  0.00    +0.000 C 
ATOM      9  C   UNL     1      25.897  25.797  24.462  0.00  0.00    +0.000 C 
ATOM     10  C   UNL     1      27.047  24.934  24.661  0.00  0.00    +0.000 C 
ATOM     11  C   UNL     1      28.023  25.596  25.610  0.00  0.00    +0.000 C 
ATOM     12  C   UNL     1      27.739  24.510  23.394  0.00  0.00    +0.000 C 
ATOM     13  O   UNL     1      27.180  24.695  22.328  0.00  0.00    +0.000 OA
ATOM     14  N   UNL     1      29.009  23.928  23.655  0.00  0.00    +0.000 NA
ATOM     15  C   UNL     1      29.139  23.186  24.890  0.00  0.00    +0.000 A 
ATOM     16  C   UNL     1      30.383  22.675  25.242  0.00  0.00    +0.000 A 
ATOM     17  C   UNL     1      30.571  22.037  26.445  0.00  0.00    +0.000 A 
ATOM     18  C   UNL     1      29.469  21.933  27.270  0.00  0.00    +0.000 A 
ATOM     19  C   UNL     1      28.235  22.419  26.960  0.00  0.00    +0.000 A 
ATOM     20  C   UNL     1      28.109  23.043  25.749  0.00  0.00    +0.000 A 
ATOM     21  C   UNL     1      26.643  23.519  25.334  0.00  0.00    +0.000 C 
ENDROOT
BRANCH   1  23
ATOM     22  C   UNL     1      22.366  26.808  28.337  0.00  0.00    +0.000 C 
ATOM     23  N   UNL     1      23.299  26.428  27.311  0.00  0.00    +0.000 NA
ENDBRANCH   1  23
TORSDOF 1
ENDMDL
MODEL 7
REMARK VINA RESULT:      -6.8     34.379     35.764
REMARK  Name = 
REMARK  1 active torsions:
REMARK  status: ('A' for Active; 'I' for Inactive)
REMARK    1  A    between atoms: N_2  and  C_3
REMARK                            x       y       z     vdW  Elec       q    Type
REMARK                         _______ _______ _______ _____ _____    ______ ____
ROOT
ATOM      1  C   UNL     1      33.937   2.580  35.316  0.00  0.00    +0.000 A 
ATOM      2  C   UNL     1      34.346   2.926  36.594  0.00  0.00    +0.000 A 
ATOM      3  C   UNL     1      34.325   2.005  37.614  0.00  0.00    +0.000 A 
ATOM      4  C   UNL     1      33.891   0.680  37.400  0.00  0.00    +0.000 A 
ATOM      5  C   UNL     1      33.501   0.372  36.156  0.00  0.00    +0.000 A 
ATOM      6  C   UNL     1      33.523   1.291  35.143  0.00  0.00    +0.000 A 
ATOM      7  C   UNL     1      33.021   0.778  33.745  0.00  0.00    +0.000 C 
ATOM      8  C   UNL     1      33.811   1.885  32.843  0.00  0.00    +0.000 C 
ATOM      9  C   UNL     1      34.171  -0.359  33.569  0.00  0.00    +0.000 C 
ATOM     10  C   UNL     1      34.170  -1.319  34.659  0.00  0.00    +0.000 C 
ATOM     11  C   UNL     1      35.471  -1.219  35.426  0.00  0.00    +0.000 C 
ATOM     12  C   UNL     1      33.904  -2.740  34.241  0.00  0.00    +0.000 C 
ATOM     13  O   UNL     1      33.479  -2.954  33.120  0.00  0.00    +0.000 OA
ATOM     14  N   UNL     1      34.208  -3.661  35.280  0.00  0.00    +0.000 NA
ATOM     15  C   UNL     1      33.994  -3.202  36.634  0.00  0.00    +0.000 A 
ATOM     16  C   UNL     1      34.362  -4.026  37.692  0.00  0.00    +0.000 A 
ATOM     17  C   UNL     1      34.255  -3.598  38.994  0.00  0.00    +0.000 A 
ATOM     18  C   UNL     1      33.766  -2.322  39.187  0.00  0.00    +0.000 A 
ATOM     19  C   UNL     1      33.394  -1.486  38.178  0.00  0.00    +0.000 A 
ATOM     20  C   UNL     1      33.522  -1.968  36.905  0.00  0.00    +0.000 A 
ATOM     21  C   UNL     1      32.987  -1.035  35.725  0.00  0.00    +0.000 C 
ENDROOT
BRANCH   1  23
ATOM     22  C   UNL     1      34.049   4.909  34.390  0.00  0.00    +0.000 C 
ATOM     23  N   UNL     1      33.937   3.484  34.233  0.00  0.00    +0.000 NA
ENDBRANCH   1  23
TORSDOF 1
ENDMDL
MODEL 8
REMARK VINA RESULT:      -6.7     16.275     17.768
REMARK  Name = 
REMARK  1 active torsions:
REMARK  status: ('A' for Active; 'I' for Inactive)
REMARK    1  A    between atoms: N_2  and  C_3
REMARK                            x       y       z     vdW  Elec       q    Type
REMARK                         _______ _______ _______ _____ _____    ______ ____
ROOT
ATOM      1  C   UNL     1      27.308  26.455  22.513  0.00  0.00    +0.000 A 
ATOM      2  C   UNL     1      26.452  27.234  23.274  0.00  0.00    +0.000 A 
ATOM      3  C   UNL     1      25.984  26.789  24.487  0.00  0.00    +0.000 A 
ATOM      4  C   UNL     1      26.355  25.529  25.002  0.00  0.00    +0.000 A 
ATOM      5  C   UNL     1      27.183  24.796  24.246  0.00  0.00    +0.000 A 
ATOM      6  C   UNL     1      27.648  25.241  23.040  0.00  0.00    +0.000 A 
ATOM      7  C   UNL     1      28.599  24.257  22.268  0.00  0.00    +0.000 C 
ATOM      8  C   UNL     1      29.344  25.389  21.358  0.00  0.00    +0.000 C 
ATOM      9  C   UNL     1      29.762  24.235  23.404  0.00  0.00    +0.000 C 
ATOM     10  C   UNL     1      29.266  23.791  24.695  0.00  0.00    +0.000 C 
ATOM     11  C   UNL     1      29.379  24.917  25.699  0.00  0.00    +0.000 C 
ATOM     12  C   UNL     1      29.918  22.541  25.220  0.00  0.00    +0.000 C 
ATOM     13  O   UNL     1      30.601  21.872  24.465  0.00  0.00    +0.000 OA
ATOM     14  N   UNL     1      29.617  22.325  26.592  0.00  0.00    +0.000 NA
ATOM     15  C   UNL     1      28.317  22.765  27.046  0.00  0.00    +0.000 A 
ATOM     16  C   UNL     1      28.004  22.665  28.397  0.00  0.00    +0.000 A 
ATOM     17  C   UNL     1      26.814  23.149  28.887  0.00  0.00    +0.000 A 
ATOM     18  C   UNL     1      25.959  23.730  27.972  0.00  0.00    +0.000 A 
ATOM     19  C   UNL     1      26.229  23.845  26.641  0.00  0.00    +0.000 A 
ATOM     20  C   UNL     1      27.427  23.345  26.214  0.00  0.00    +0.000 A 
ATOM     21  C   UNL     1      27.702  23.380  24.641  0.00  0.00    +0.000 C 
ENDROOT
BRANCH   1  23
ATOM     22  C   UNL     1      27.258  27.935  20.489  0.00  0.00    +0.000 C 
ATOM     23  N   UNL     1      27.818  26.861  21.262  0.00  0.00    +0.000 NA
ENDBRANCH   1  23
TORSDOF 1
ENDMDL
MODEL 9
REMARK VINA RESULT:      -6.6      1.537      5.347
REMARK  Name = 
REMARK  1 active torsions:
REMARK  status: ('A' for Active; 'I' for Inactive)
REMARK    1  A    between atoms: N_2  and  C_3
REMARK                            x       y       z     vdW  Elec       q    Type
REMARK                         _______ _______ _______ _____ _____    ______ ____
ROOT
ATOM      1  C   UNL     1       9.356  20.559  19.690  0.00  0.00    +0.000 A 
ATOM      2  C   UNL     1      10.169  19.488  20.025  0.00  0.00    +0.000 A 
ATOM      3  C   UNL     1      11.485  19.682  20.369  0.00  0.00    +0.000 A 
ATOM      4  C   UNL     1      12.056  20.972  20.397  0.00  0.00    +0.000 A 
ATOM      5  C   UNL     1      11.249  21.989  20.070  0.00  0.00    +0.000 A 
ATOM      6  C   UNL     1       9.939  21.793  19.728  0.00  0.00    +0.000 A 
ATOM      7  C   UNL     1       9.130  23.088  19.355  0.00  0.00    +0.000 C 
ATOM      8  C   UNL     1       7.648  22.482  19.677  0.00  0.00    +0.000 C 
ATOM      9  C   UNL     1       9.284  23.797  20.811  0.00  0.00    +0.000 C 
ATOM     10  C   UNL     1      10.674  23.980  21.191  0.00  0.00    +0.000 C 
ATOM     11  C   UNL     1      10.978  23.151  22.420  0.00  0.00    +0.000 C 
ATOM     12  C   UNL     1      11.083  25.413  21.399  0.00  0.00    +0.000 C 
ATOM     13  O   UNL     1      10.341  26.298  21.013  0.00  0.00    +0.000 OA
ATOM     14  N   UNL     1      12.342  25.513  22.050  0.00  0.00    +0.000 NA
ATOM     15  C   UNL     1      13.303  24.471  21.765  0.00  0.00    +0.000 A 
ATOM     16  C   UNL     1      14.515  24.466  22.444  0.00  0.00    +0.000 A 
ATOM     17  C   UNL     1      15.423  23.448  22.267  0.00  0.00    +0.000 A 
ATOM     18  C   UNL     1      15.066  22.447  21.387  0.00  0.00    +0.000 A 
ATOM     19  C   UNL     1      13.889  22.417  20.702  0.00  0.00    +0.000 A 
ATOM     20  C   UNL     1      13.027  23.457  20.919  0.00  0.00    +0.000 A 
ATOM     21  C   UNL     1      11.695  23.483  20.039  0.00  0.00    +0.000 C 
ENDROOT
BRANCH   1  23
ATOM     22  C   UNL     1       7.341  19.147  19.206  0.00  0.00    +0.000 C 
ATOM     23  N   UNL     1       8.000  20.418  19.329  0.00  0.00    +0.000 NA
ENDBRANCH   1  23
TORSDOF 1
ENDMDL
MODEL 10
REMARK VINA RESULT:      -6.6     23.010     24.276
REMARK  Name = 
REMARK  1 active torsions:
REMARK  status: ('A' for Active; 'I' for Inactive)
REMARK    1  A    between atoms: N_2  and  C_3
REMARK                            x       y       z     vdW  Elec       q    Type
REMARK                         _______ _______ _______ _____ _____    ______ ____
ROOT
ATOM      1  C   UNL     1      23.751   2.993  16.118  0.00  0.00    +0.000 A 
ATOM      2  C   UNL     1      23.835   2.887  14.739  0.00  0.00    +0.000 A 
ATOM      3  C   UNL     1      24.589   3.773  14.008  0.00  0.00    +0.000 A 
ATOM      4  C   UNL     1      25.304   4.819  14.630  0.00  0.00    +0.000 A 
ATOM      5  C   UNL     1      25.206   4.899  15.963  0.00  0.00    +0.000 A 
ATOM      6  C   UNL     1      24.455   4.015  16.688  0.00  0.00    +0.000 A 
ATOM      7  C   UNL     1      24.430   4.253  18.241  0.00  0.00    +0.000 C 
ATOM      8  C   UNL     1      24.038   2.725  18.660  0.00  0.00    +0.000 C 
ATOM      9  C   UNL     1      26.026   4.030  18.463  0.00  0.00    +0.000 C 
ATOM     10  C   UNL     1      26.827   4.947  17.672  0.00  0.00    +0.000 C 
ATOM     11  C   UNL     1      27.641   4.169  16.660  0.00  0.00    +0.000 C 
ATOM     12  C   UNL     1      27.710   5.861  18.477  0.00  0.00    +0.000 C 
ATOM     13  O   UNL     1      27.526   5.951  19.677  0.00  0.00    +0.000 OA
ATOM     14  N   UNL     1      28.675   6.514  17.663  0.00  0.00    +0.000 NA
ATOM     15  C   UNL     1      28.276   6.823  16.308  0.00  0.00    +0.000 A 
ATOM     16  C   UNL     1      29.210   7.377  15.439  0.00  0.00    +0.000 A 
ATOM     17  C   UNL     1      28.899   7.608  14.120  0.00  0.00    +0.000 A 
ATOM     18  C   UNL     1      27.625   7.267  13.715  0.00  0.00    +0.000 A 
ATOM     19  C   UNL     1      26.683   6.725  14.536  0.00  0.00    +0.000 A 
ATOM     20  C   UNL     1      27.050   6.518  15.837  0.00  0.00    +0.000 A 
ATOM     21  C   UNL     1      25.917   5.984  16.828  0.00  0.00    +0.000 C 
ENDROOT
BRANCH   1  23
ATOM     22  C   UNL     1      21.948   1.272  16.398  0.00  0.00    +0.000 C 
ATOM     23  N   UNL     1      22.993   2.113  16.917  0.00  0.00    +0.000 NA
ENDBRANCH   1  23
TORSDOF 1
ENDMDL
