MODEL 1
REMARK VINA RESULT:      -6.1      0.000      0.000
REMARK  Name = 
REMARK  4 active torsions:
REMARK  status: ('A' for Active; 'I' for Inactive)
REMARK    1  A    between atoms: N_5  and  C_6
REMARK    2  A    between atoms: C_6  and  C_7
REMARK    3  A    between atoms: C_7  and  C_8
REMARK    4  A    between atoms: C_15  and  O_16
REMARK                            x       y       z     vdW  Elec       q    Type
REMARK                         _______ _______ _______ _____ _____    ______ ____
ROOT
ATOM      1  C   UNL     1      29.558  22.866  25.117  0.00  0.00    +0.000 A 
ATOM      2  C   UNL     1      28.928  22.427  26.254  0.00  0.00    +0.000 A 
ATOM      3  C   UNL     1      27.557  22.452  26.338  0.00  0.00    +0.000 A 
ATOM      4  C   UNL     1      26.809  22.923  25.269  0.00  0.00    +0.000 A 
ATOM      5  C   UNL     1      27.421  23.370  24.118  0.00  0.00    +0.000 A 
ATOM      6  C   UNL     1      26.741  23.849  23.021  0.00  0.00    +0.000 A 
ATOM      7  C   UNL     1      27.400  24.286  21.890  0.00  0.00    +0.000 A 
ATOM      8  C   UNL     1      28.771  24.240  21.856  0.00  0.00    +0.000 A 
ATOM      9  C   UNL     1      29.463  23.762  22.946  0.00  0.00    +0.000 A 
ATOM     10  C   UNL     1      28.794  23.332  24.064  0.00  0.00    +0.000 A 
ENDROOT
BRANCH   8  11
ATOM     11  O   UNL     1      29.511  24.657  20.766  0.00  0.00    +0.000 OA
ATOM     12  C   UNL     1      29.599  26.001  20.343  0.00  0.00    +0.000 C 
ENDBRANCH   8  11
BRANCH   1  13
ATOM     13  C   UNL     1      31.040  22.808  25.093  0.00  0.00    +0.000 C 
BRANCH  13  14
ATOM     14  C   UNL     1      31.661  23.927  25.889  0.00  0.00    +0.000 C 
BRANCH  14  19
ATOM     15  C   UNL     1      35.473  24.636  24.217  0.00  0.00    +0.000 C 
ATOM     16  N   UNL     1      34.616  25.782  24.558  0.00  0.00    +0.000 NA
ATOM     17  C   UNL     1      33.340  25.491  25.167  0.00  0.00    +0.000 C 
ATOM     18  S   UNL     1      32.291  26.802  25.767  0.00  0.00    +0.000 S 
ATOM     19  N   UNL     1      32.928  24.277  25.290  0.00  0.00    +0.000 NA
ENDBRANCH  14  19
ENDBRANCH  13  14
ENDBRANCH   1  13
TORSDOF 4
ENDMDL
MODEL 2
REMARK VINA RESULT:      -6.0     23.140     25.826
REMARK  Name = 
REMARK  4 active torsions:
REMARK  status: ('A' for Active; 'I' for Inactive)
REMARK    1  A    between atoms: N_5  and  C_6
REMARK    2  A    between atoms: C_6  and  C_7
REMARK    3  A    between atoms: C_7  and  C_8
REMARK    4  A    between atoms: C_15  and  O_16
REMARK                            x       y       z     vdW  Elec       q    Type
REMARK                         _______ _______ _______ _____ _____    ______ ____
ROOT
ATOM      1  C   UNL     1      17.678   8.708  39.922  0.00  0.00    +0.000 A 
ATOM      2  C   UNL     1      16.667   9.519  40.371  0.00  0.00    +0.000 A 
ATOM      3  C   UNL     1      15.824   9.086  41.366  0.00  0.00    +0.000 A 
ATOM      4  C   UNL     1      15.998   7.825  41.917  0.00  0.00    +0.000 A 
ATOM      5  C   UNL     1      17.007   6.994  41.481  0.00  0.00    +0.000 A 
ATOM      6  C   UNL     1      17.237   5.733  41.982  0.00  0.00    +0.000 A 
ATOM      7  C   UNL     1      18.261   4.938  41.512  0.00  0.00    +0.000 A 
ATOM      8  C   UNL     1      19.075   5.416  40.516  0.00  0.00    +0.000 A 
ATOM      9  C   UNL     1      18.857   6.676  40.006  0.00  0.00    +0.000 A 
ATOM     10  C   UNL     1      17.834   7.457  40.484  0.00  0.00    +0.000 A 
ENDROOT
BRANCH   8  11
ATOM     11  O   UNL     1      20.123   4.690  39.985  0.00  0.00    +0.000 OA
ATOM     12  C   UNL     1      21.053   3.968  40.765  0.00  0.00    +0.000 C 
ENDBRANCH   8  11
BRANCH   1  13
ATOM     13  C   UNL     1      18.552   9.240  38.848  0.00  0.00    +0.000 C 
BRANCH  13  14
ATOM     14  C   UNL     1      18.045  10.554  38.308  0.00  0.00    +0.000 C 
BRANCH  14  19
ATOM     15  C   UNL     1      17.670  10.144  34.122  0.00  0.00    +0.000 C 
ATOM     16  N   UNL     1      16.509  10.596  34.904  0.00  0.00    +0.000 NA
ATOM     17  C   UNL     1      16.698  10.762  36.326  0.00  0.00    +0.000 C 
ATOM     18  S   UNL     1      15.411  11.457  37.346  0.00  0.00    +0.000 S 
ATOM     19  N   UNL     1      17.801  10.412  36.892  0.00  0.00    +0.000 NA
ENDBRANCH  14  19
ENDBRANCH  13  14
ENDBRANCH   1  13
TORSDOF 4
ENDMDL
MODEL 3
REMARK VINA RESULT:      -6.0      4.015      6.288
REMARK  Name = 
REMARK  4 active torsions:
REMARK  status: ('A' for Active; 'I' for Inactive)
REMARK    1  A    between atoms: N_5  and  C_6
REMARK    2  A    between atoms: C_6  and  C_7
REMARK    3  A    between atoms: C_7  and  C_8
REMARK    4  A    between atoms: C_15  and  O_16
REMARK                            x       y       z     vdW  Elec       q    Type
REMARK                         _______ _______ _______ _____ _____    ______ ____
ROOT
ATOM      1  C   UNL     1      27.210  23.320  24.317  0.00  0.00    +0.000 A 
ATOM      2  C   UNL     1      26.790  23.845  23.120  0.00  0.00    +0.000 A 
ATOM      3  C   UNL     1      27.709  24.259  22.186  0.00  0.00    +0.000 A 
ATOM      4  C   UNL     1      29.065  24.145  22.455  0.00  0.00    +0.000 A 
ATOM      5  C   UNL     1      29.509  23.621  23.650  0.00  0.00    +0.000 A 
ATOM      6  C   UNL     1      30.837  23.480  23.983  0.00  0.00    +0.000 A 
ATOM      7  C   UNL     1      31.232  22.950  25.194  0.00  0.00    +0.000 A 
ATOM      8  C   UNL     1      30.275  22.551  26.093  0.00  0.00    +0.000 A 
ATOM      9  C   UNL     1      28.943  22.687  25.773  0.00  0.00    +0.000 A 
ATOM     10  C   UNL     1      28.565  23.216  24.564  0.00  0.00    +0.000 A 
ENDROOT
BRANCH   8  11
ATOM     11  O   UNL     1      30.579  22.011  27.328  0.00  0.00    +0.000 OA
ATOM     12  C   UNL     1      30.347  22.672  28.553  0.00  0.00    +0.000 C 
ENDBRANCH   8  11
BRANCH   1  13
ATOM     13  C   UNL     1      26.165  22.891  25.276  0.00  0.00    +0.000 C 
BRANCH  13  14
ATOM     14  C   UNL     1      25.699  24.029  26.150  0.00  0.00    +0.000 C 
BRANCH  14  19
ATOM     15  C   UNL     1      26.388  22.679  30.091  0.00  0.00    +0.000 C 
ATOM     16  N   UNL     1      25.811  24.015  29.882  0.00  0.00    +0.000 NA
ATOM     17  C   UNL     1      25.553  24.416  28.519  0.00  0.00    +0.000 C 
ATOM     18  S   UNL     1      24.710  25.944  28.157  0.00  0.00    +0.000 S 
ATOM     19  N   UNL     1      25.928  23.679  27.532  0.00  0.00    +0.000 NA
ENDBRANCH  14  19
ENDBRANCH  13  14
ENDBRANCH   1  13
TORSDOF 4
ENDMDL
MODEL 4
REMARK VINA RESULT:      -6.0      2.022      2.612
REMARK  Name = 
REMARK  4 active torsions:
REMARK  status: ('A' for Active; 'I' for Inactive)
REMARK    1  A    between atoms: N_5  and  C_6
REMARK    2  A    between atoms: C_6  and  C_7
REMARK    3  A    between atoms: C_7  and  C_8
REMARK    4  A    between atoms: C_15  and  O_16
REMARK                            x       y       z     vdW  Elec       q    Type
REMARK                         _______ _______ _______ _____ _____    ______ ____
ROOT
ATOM      1  C   UNL     1      29.327  22.816  25.303  0.00  0.00    +0.000 A 
ATOM      2  C   UNL     1      28.623  22.401  26.406  0.00  0.00    +0.000 A 
ATOM      3  C   UNL     1      27.249  22.427  26.399  0.00  0.00    +0.000 A 
ATOM      4  C   UNL     1      26.573  22.875  25.274  0.00  0.00    +0.000 A 
ATOM      5  C   UNL     1      27.260  23.297  24.156  0.00  0.00    +0.000 A 
ATOM      6  C   UNL     1      26.654  23.753  23.007  0.00  0.00    +0.000 A 
ATOM      7  C   UNL     1      27.386  24.166  21.913  0.00  0.00    +0.000 A 
ATOM      8  C   UNL     1      28.757  24.120  21.969  0.00  0.00    +0.000 A 
ATOM      9  C   UNL     1      29.375  23.666  23.112  0.00  0.00    +0.000 A 
ATOM     10  C   UNL     1      28.634  23.259  24.194  0.00  0.00    +0.000 A 
ENDROOT
BRANCH   8  11
ATOM     11  O   UNL     1      29.568  24.513  20.922  0.00  0.00    +0.000 OA
ATOM     12  C   UNL     1      29.564  25.813  20.371  0.00  0.00    +0.000 C 
ENDBRANCH   8  11
BRANCH   1  13
ATOM     13  C   UNL     1      30.807  22.758  25.378  0.00  0.00    +0.000 C 
BRANCH  13  14
ATOM     14  C   UNL     1      31.364  23.781  26.335  0.00  0.00    +0.000 C 
BRANCH  14  19
ATOM     15  C   UNL     1      32.947  21.497  29.514  0.00  0.00    +0.000 C 
ATOM     16  N   UNL     1      32.285  22.775  29.812  0.00  0.00    +0.000 NA
ATOM     17  C   UNL     1      31.721  23.501  28.697  0.00  0.00    +0.000 C 
ATOM     18  S   UNL     1      30.757  24.977  28.958  0.00  0.00    +0.000 S 
ATOM     19  N   UNL     1      31.902  23.097  27.487  0.00  0.00    +0.000 NA
ENDBRANCH  14  19
ENDBRANCH  13  14
ENDBRANCH   1  13
TORSDOF 4
ENDMDL
MODEL 5
REMARK VINA RESULT:      -5.9     20.490     22.808
REMARK  Name = 
REMARK  4 active torsions:
REMARK  status: ('A' for Active; 'I' for Inactive)
REMARK    1  A    between atoms: N_5  and  C_6
REMARK    2  A    between atoms: C_6  and  C_7
REMARK    3  A    between atoms: C_7  and  C_8
REMARK    4  A    between atoms: C_15  and  O_16
REMARK                            x       y       z     vdW  Elec       q    Type
REMARK                         _______ _______ _______ _____ _____    ______ ____
ROOT
ATOM      1  C   UNL     1      17.310  10.181  38.204  0.00  0.00    +0.000 A 
ATOM      2  C   UNL     1      17.499   9.598  39.432  0.00  0.00    +0.000 A 
ATOM      3  C   UNL     1      16.465   9.537  40.334  0.00  0.00    +0.000 A 
ATOM      4  C   UNL     1      15.227  10.066  40.002  0.00  0.00    +0.000 A 
ATOM      5  C   UNL     1      15.015  10.657  38.775  0.00  0.00    +0.000 A 
ATOM      6  C   UNL     1      13.814  11.201  38.380  0.00  0.00    +0.000 A 
ATOM      7  C   UNL     1      13.651  11.782  37.139  0.00  0.00    +0.000 A 
ATOM      8  C   UNL     1      14.715  11.819  36.273  0.00  0.00    +0.000 A 
ATOM      9  C   UNL     1      15.922  11.277  36.656  0.00  0.00    +0.000 A 
ATOM     10  C   UNL     1      16.069  10.702  37.894  0.00  0.00    +0.000 A 
ENDROOT
BRANCH   8  11
ATOM     11  O   UNL     1      14.642  12.380  35.013  0.00  0.00    +0.000 OA
ATOM     12  C   UNL     1      15.294  11.850  33.878  0.00  0.00    +0.000 C 
ENDBRANCH   8  11
BRANCH   1  13
ATOM     13  C   UNL     1      18.467  10.209  37.278  0.00  0.00    +0.000 C 
BRANCH  13  14
ATOM     14  C   UNL     1      19.737   9.748  37.948  0.00  0.00    +0.000 C 
BRANCH  14  19
ATOM     15  C   UNL     1      21.823  13.284  38.934  0.00  0.00    +0.000 C 
ATOM     16  N   UNL     1      22.466  12.295  38.056  0.00  0.00    +0.000 NA
ATOM     17  C   UNL     1      21.698  11.122  37.712  0.00  0.00    +0.000 C 
ATOM     18  S   UNL     1      22.312   9.937  36.530  0.00  0.00    +0.000 S 
ATOM     19  N   UNL     1      20.549  10.903  38.252  0.00  0.00    +0.000 NA
ENDBRANCH  14  19
ENDBRANCH  13  14
ENDBRANCH   1  13
TORSDOF 4
ENDMDL
MODEL 6
REMARK VINA RESULT:      -5.8     33.263     35.019
REMARK  Name = 
REMARK  4 active torsions:
REMARK  status: ('A' for Active; 'I' for Inactive)
REMARK    1  A    between atoms: N_5  and  C_6
REMARK    2  A    between atoms: C_6  and  C_7
REMARK    3  A    between atoms: C_7  and  C_8
REMARK    4  A    between atoms: C_15  and  O_16
REMARK                            x       y       z     vdW  Elec       q    Type
REMARK                         _______ _______ _______ _____ _____    ______ ____
ROOT
ATOM      1  C   UNL     1      18.709  -7.758  27.006  0.00  0.00    +0.000 A 
ATOM      2  C   UNL     1      17.982  -6.618  27.243  0.00  0.00    +0.000 A 
ATOM      3  C   UNL     1      18.416  -5.409  26.757  0.00  0.00    +0.000 A 
ATOM      4  C   UNL     1      19.592  -5.341  26.024  0.00  0.00    +0.000 A 
ATOM      5  C   UNL     1      20.337  -6.473  25.774  0.00  0.00    +0.000 A 
ATOM      6  C   UNL     1      21.511  -6.478  25.056  0.00  0.00    +0.000 A 
ATOM      7  C   UNL     1      22.223  -7.639  24.833  0.00  0.00    +0.000 A 
ATOM      8  C   UNL     1      21.748  -8.822  25.340  0.00  0.00    +0.000 A 
ATOM      9  C   UNL     1      20.575  -8.831  26.060  0.00  0.00    +0.000 A 
ATOM     10  C   UNL     1      19.877  -7.668  26.274  0.00  0.00    +0.000 A 
ENDROOT
BRANCH   8  11
ATOM     11  O   UNL     1      22.395 -10.030  25.166  0.00  0.00    +0.000 OA
ATOM     12  C   UNL     1      23.637 -10.349  25.757  0.00  0.00    +0.000 C 
ENDBRANCH   8  11
BRANCH   1  13
ATOM     13  C   UNL     1      18.181  -9.030  27.557  0.00  0.00    +0.000 C 
BRANCH  13  14
ATOM     14  C   UNL     1      18.334  -9.101  29.056  0.00  0.00    +0.000 C 
BRANCH  14  19
ATOM     15  C   UNL     1      15.093 -11.431  30.433  0.00  0.00    +0.000 C 
ATOM     16  N   UNL     1      16.364 -11.466  31.171  0.00  0.00    +0.000 NA
ATOM     17  C   UNL     1      17.430 -10.620  30.688  0.00  0.00    +0.000 C 
ATOM     18  S   UNL     1      18.956 -10.460  31.594  0.00  0.00    +0.000 S 
ATOM     19  N   UNL     1      17.303  -9.961  29.588  0.00  0.00    +0.000 NA
ENDBRANCH  14  19
ENDBRANCH  13  14
ENDBRANCH   1  13
TORSDOF 4
ENDMDL
MODEL 7
REMARK VINA RESULT:      -5.8     32.940     34.630
REMARK  Name = 
REMARK  4 active torsions:
REMARK  status: ('A' for Active; 'I' for Inactive)
REMARK    1  A    between atoms: N_5  and  C_6
REMARK    2  A    between atoms: C_6  and  C_7
REMARK    3  A    between atoms: C_7  and  C_8
REMARK    4  A    between atoms: C_15  and  O_16
REMARK                            x       y       z     vdW  Elec       q    Type
REMARK                         _______ _______ _______ _____ _____    ______ ____
ROOT
ATOM      1  C   UNL     1      18.785  -7.797  27.062  0.00  0.00    +0.000 A 
ATOM      2  C   UNL     1      18.035  -6.668  27.274  0.00  0.00    +0.000 A 
ATOM      3  C   UNL     1      18.433  -5.464  26.744  0.00  0.00    +0.000 A 
ATOM      4  C   UNL     1      19.596  -5.393  25.991  0.00  0.00    +0.000 A 
ATOM      5  C   UNL     1      20.364  -6.514  25.766  0.00  0.00    +0.000 A 
ATOM      6  C   UNL     1      21.528  -6.515  25.030  0.00  0.00    +0.000 A 
ATOM      7  C   UNL     1      22.264  -7.666  24.832  0.00  0.00    +0.000 A 
ATOM      8  C   UNL     1      21.824  -8.843  25.384  0.00  0.00    +0.000 A 
ATOM      9  C   UNL     1      20.661  -8.856  26.121  0.00  0.00    +0.000 A 
ATOM     10  C   UNL     1      19.940  -7.704  26.310  0.00  0.00    +0.000 A 
ENDROOT
BRANCH   8  11
ATOM     11  O   UNL     1      22.496 -10.041  25.238  0.00  0.00    +0.000 OA
ATOM     12  C   UNL     1      23.802 -10.273  25.723  0.00  0.00    +0.000 C 
ENDBRANCH   8  11
BRANCH   1  13
ATOM     13  C   UNL     1      18.296  -9.063  27.660  0.00  0.00    +0.000 C 
BRANCH  13  14
ATOM     14  C   UNL     1      17.044  -9.560  26.982  0.00  0.00    +0.000 C 
BRANCH  14  19
ATOM     15  C   UNL     1      18.262 -10.447  23.037  0.00  0.00    +0.000 C 
ATOM     16  N   UNL     1      16.962  -9.795  23.255  0.00  0.00    +0.000 NA
ATOM     17  C   UNL     1      16.608  -9.472  24.617  0.00  0.00    +0.000 C 
ATOM     18  S   UNL     1      15.134  -8.538  24.985  0.00  0.00    +0.000 S 
ATOM     19  N   UNL     1      17.348  -9.852  25.601  0.00  0.00    +0.000 NA
ENDBRANCH  14  19
ENDBRANCH  13  14
ENDBRANCH   1  13
TORSDOF 4
ENDMDL
MODEL 8
REMARK VINA RESULT:      -5.8     33.003     34.660
REMARK  Name = 
REMARK  4 active torsions:
REMARK  status: ('A' for Active; 'I' for Inactive)
REMARK    1  A    between atoms: N_5  and  C_6
REMARK    2  A    between atoms: C_6  and  C_7
REMARK    3  A    between atoms: C_7  and  C_8
REMARK    4  A    between atoms: C_15  and  O_16
REMARK                            x       y       z     vdW  Elec       q    Type
REMARK                         _______ _______ _______ _____ _____    ______ ____
ROOT
ATOM      1  C   UNL     1      18.595  -7.667  26.843  0.00  0.00    +0.000 A 
ATOM      2  C   UNL     1      17.884  -6.528  27.126  0.00  0.00    +0.000 A 
ATOM      3  C   UNL     1      18.366  -5.300  26.740  0.00  0.00    +0.000 A 
ATOM      4  C   UNL     1      19.573  -5.214  26.063  0.00  0.00    +0.000 A 
ATOM      5  C   UNL     1      20.303  -6.345  25.769  0.00  0.00    +0.000 A 
ATOM      6  C   UNL     1      21.507  -6.333  25.101  0.00  0.00    +0.000 A 
ATOM      7  C   UNL     1      22.201  -7.494  24.831  0.00  0.00    +0.000 A 
ATOM      8  C   UNL     1      21.678  -8.696  25.237  0.00  0.00    +0.000 A 
ATOM      9  C   UNL     1      20.475  -8.722  25.906  0.00  0.00    +0.000 A 
ATOM     10  C   UNL     1      19.795  -7.559  26.168  0.00  0.00    +0.000 A 
ENDROOT
BRANCH   8  11
ATOM     11  O   UNL     1      22.304  -9.906  25.010  0.00  0.00    +0.000 OA
ATOM     12  C   UNL     1      23.682 -10.037  24.730  0.00  0.00    +0.000 C 
ENDBRANCH   8  11
BRANCH   1  13
ATOM     13  C   UNL     1      18.015  -8.958  27.285  0.00  0.00    +0.000 C 
BRANCH  13  14
ATOM     14  C   UNL     1      18.284  -9.227  28.745  0.00  0.00    +0.000 C 
BRANCH  14  19
ATOM     15  C   UNL     1      20.746 -12.658  28.762  0.00  0.00    +0.000 C 
ATOM     16  N   UNL     1      20.513 -11.938  30.023  0.00  0.00    +0.000 NA
ATOM     17  C   UNL     1      19.630 -10.796  29.976  0.00  0.00    +0.000 C 
ATOM     18  S   UNL     1      19.149  -9.947  31.467  0.00  0.00    +0.000 S 
ATOM     19  N   UNL     1      19.169 -10.363  28.853  0.00  0.00    +0.000 NA
ENDBRANCH  14  19
ENDBRANCH  13  14
ENDBRANCH   1  13
TORSDOF 4
ENDMDL
MODEL 9
REMARK VINA RESULT:      -5.6      3.996      5.756
REMARK  Name = 
REMARK  4 active torsions:
REMARK  status: ('A' for Active; 'I' for Inactive)
REMARK    1  A    between atoms: N_5  and  C_6
REMARK    2  A    between atoms: C_6  and  C_7
REMARK    3  A    between atoms: C_7  and  C_8
REMARK    4  A    between atoms: C_15  and  O_16
REMARK                            x       y       z     vdW  Elec       q    Type
REMARK                         _______ _______ _______ _____ _____    ______ ____
ROOT
ATOM      1  C   UNL     1      29.721  22.364  26.202  0.00  0.00    +0.000 A 
ATOM      2  C   UNL     1      30.295  22.455  24.959  0.00  0.00    +0.000 A 
ATOM      3  C   UNL     1      29.605  23.034  23.921  0.00  0.00    +0.000 A 
ATOM      4  C   UNL     1      28.325  23.526  24.132  0.00  0.00    +0.000 A 
ATOM      5  C   UNL     1      27.730  23.444  25.372  0.00  0.00    +0.000 A 
ATOM      6  C   UNL     1      26.466  23.912  25.652  0.00  0.00    +0.000 A 
ATOM      7  C   UNL     1      25.913  23.806  26.912  0.00  0.00    +0.000 A 
ATOM      8  C   UNL     1      26.643  23.220  27.915  0.00  0.00    +0.000 A 
ATOM      9  C   UNL     1      27.909  22.749  27.649  0.00  0.00    +0.000 A 
ATOM     10  C   UNL     1      28.447  22.860  26.391  0.00  0.00    +0.000 A 
ENDROOT
BRANCH   8  11
ATOM     11  O   UNL     1      26.169  23.073  29.204  0.00  0.00    +0.000 OA
ATOM     12  C   UNL     1      26.644  22.099  30.110  0.00  0.00    +0.000 C 
ENDBRANCH   8  11
BRANCH   1  13
ATOM     13  C   UNL     1      30.523  21.732  27.278  0.00  0.00    +0.000 C 
BRANCH  13  14
ATOM     14  C   UNL     1      31.187  22.757  28.163  0.00  0.00    +0.000 C 
BRANCH  14  19
ATOM     15  C   UNL     1      30.258  21.897  32.191  0.00  0.00    +0.000 C 
ATOM     16  N   UNL     1      31.620  21.637  31.699  0.00  0.00    +0.000 NA
ATOM     17  C   UNL     1      31.902  21.987  30.327  0.00  0.00    +0.000 C 
ATOM     18  S   UNL     1      33.556  21.867  29.672  0.00  0.00    +0.000 S 
ATOM     19  N   UNL     1      30.965  22.394  29.543  0.00  0.00    +0.000 NA
ENDBRANCH  14  19
ENDBRANCH  13  14
ENDBRANCH   1  13
TORSDOF 4
ENDMDL
MODEL 10
REMARK VINA RESULT:      -5.6      1.670      2.497
REMARK  Name = 
REMARK  4 active torsions:
REMARK  status: ('A' for Active; 'I' for Inactive)
REMARK    1  A    between atoms: N_5  and  C_6
REMARK    2  A    between atoms: C_6  and  C_7
REMARK    3  A    between atoms: C_7  and  C_8
REMARK    4  A    between atoms: C_15  and  O_16
REMARK                            x       y       z     vdW  Elec       q    Type
REMARK                         _______ _______ _______ _____ _____    ______ ____
ROOT
ATOM      1  C   UNL     1      30.345  22.872  25.352  0.00  0.00    +0.000 A 
ATOM      2  C   UNL     1      30.756  22.527  26.615  0.00  0.00    +0.000 A 
ATOM      3  C   UNL     1      29.829  22.234  27.587  0.00  0.00    +0.000 A 
ATOM      4  C   UNL     1      28.476  22.288  27.289  0.00  0.00    +0.000 A 
ATOM      5  C   UNL     1      28.041  22.632  26.027  0.00  0.00    +0.000 A 
ATOM      6  C   UNL     1      26.716  22.705  25.662  0.00  0.00    +0.000 A 
ATOM      7  C   UNL     1      26.331  23.055  24.384  0.00  0.00    +0.000 A 
ATOM      8  C   UNL     1      27.295  23.338  23.450  0.00  0.00    +0.000 A 
ATOM      9  C   UNL     1      28.624  23.269  23.801  0.00  0.00    +0.000 A 
ATOM     10  C   UNL     1      28.993  22.919  25.076  0.00  0.00    +0.000 A 
ENDROOT
BRANCH   8  11
ATOM     11  O   UNL     1      27.000  23.697  22.149  0.00  0.00    +0.000 OA
ATOM     12  C   UNL     1      27.330  24.949  21.585  0.00  0.00    +0.000 C 
ENDBRANCH   8  11
BRANCH   1  13
ATOM     13  C   UNL     1      31.398  23.171  24.352  0.00  0.00    +0.000 C 
BRANCH  13  14
ATOM     14  C   UNL     1      32.542  23.949  24.953  0.00  0.00    +0.000 C 
BRANCH  14  19
ATOM     15  C   UNL     1      30.967  27.825  25.523  0.00  0.00    +0.000 C 
ATOM     16  N   UNL     1      32.426  27.641  25.505  0.00  0.00    +0.000 NA
ATOM     17  C   UNL     1      32.918  26.305  25.264  0.00  0.00    +0.000 C 
ATOM     18  S   UNL     1      34.661  25.993  25.059  0.00  0.00    +0.000 S 
ATOM     19  N   UNL     1      32.108  25.306  25.191  0.00  0.00    +0.000 NA
ENDBRANCH  14  19
ENDBRANCH  13  14
ENDBRANCH   1  13
TORSDOF 4
ENDMDL
