MODEL 1
REMARK VINA RESULT:      -7.6      0.000      0.000
REMARK  Name = 
REMARK  3 active torsions:
REMARK  status: ('A' for Active; 'I' for Inactive)
REMARK    1  A    between atoms: C_6  and  N_7
REMARK    2  A    between atoms: C_8  and  C_10
REMARK    3  A    between atoms: C_14  and  N_15
REMARK                            x       y       z     vdW  Elec       q    Type
REMARK                         _______ _______ _______ _____ _____    ______ ____
ROOT
ATOM      1  N   UNL     1      15.352  11.148  36.179  0.00  0.00    +0.000 NA
ATOM      2  C   UNL     1      15.433  12.520  35.818  0.00  0.00    +0.000 C 
ATOM      3  O   UNL     1      16.068  13.281  36.569  0.00  0.00    +0.000 OA
ENDROOT
BRANCH   1   9
ATOM      4  C   UNL     1      17.887   9.050  40.856  0.00  0.00    +0.000 C 
ATOM      5  C   UNL     1      17.249   9.591  39.627  0.00  0.00    +0.000 A 
ATOM      6  C   UNL     1      17.905   9.637  38.414  0.00  0.00    +0.000 A 
ATOM      7  C   UNL     1      17.261  10.157  37.285  0.00  0.00    +0.000 A 
ATOM      8  C   UNL     1      17.956  10.213  35.971  0.00  0.00    +0.000 C 
ATOM      9  C   UNL     1      15.966  10.629  37.354  0.00  0.00    +0.000 A 
ATOM     10  C   UNL     1      15.307  10.582  38.569  0.00  0.00    +0.000 A 
ATOM     11  C   UNL     1      13.915  11.101  38.605  0.00  0.00    +0.000 C 
ATOM     12  C   UNL     1      15.957  10.070  39.665  0.00  0.00    +0.000 A 
ENDBRANCH   1   9
BRANCH   2  13
ATOM     13  C   UNL     1      14.788  13.012  34.605  0.00  0.00    +0.000 A 
ATOM     14  C   UNL     1      13.895  14.056  34.660  0.00  0.00    +0.000 A 
ATOM     15  C   UNL     1      13.276  14.540  33.553  0.00  0.00    +0.000 A 
ATOM     16  C   UNL     1      13.540  13.977  32.327  0.00  0.00    +0.000 A 
ATOM     17  C   UNL     1      14.428  12.927  32.220  0.00  0.00    +0.000 A 
ATOM     18  C   UNL     1      15.042  12.462  33.389  0.00  0.00    +0.000 A 
BRANCH  17  19
ATOM     19  N   UNL     1      14.712  12.335  30.961  0.00  0.00    +0.000 N 
ATOM     20  O   UNL     1      14.564  11.113  30.833  0.00  0.00    +0.000 OA
ATOM     21  O   UNL     1      15.135  13.077  29.912  0.00  0.00    +0.000 OA
ENDBRANCH  17  19
ENDBRANCH   2  13
TORSDOF 3
ENDMDL
MODEL 2
REMARK VINA RESULT:      -7.6      1.710      2.959
REMARK  Name = 
REMARK  3 active torsions:
REMARK  status: ('A' for Active; 'I' for Inactive)
REMARK    1  A    between atoms: C_6  and  N_7
REMARK    2  A    between atoms: C_8  and  C_10
REMARK    3  A    between atoms: C_14  and  N_15
REMARK                            x       y       z     vdW  Elec       q    Type
REMARK                         _______ _______ _______ _____ _____    ______ ____
ROOT
ATOM      1  N   UNL     1      16.819  10.176  35.826  0.00  0.00    +0.000 NA
ATOM      2  C   UNL     1      16.747  11.423  35.149  0.00  0.00    +0.000 C 
ATOM      3  O   UNL     1      17.198  12.427  35.730  0.00  0.00    +0.000 OA
ENDROOT
BRANCH   1   9
ATOM      4  C   UNL     1      19.019   9.666  41.080  0.00  0.00    +0.000 C 
ATOM      5  C   UNL     1      18.425   9.805  39.725  0.00  0.00    +0.000 A 
ATOM      6  C   UNL     1      17.112  10.183  39.529  0.00  0.00    +0.000 A 
ATOM      7  C   UNL     1      16.599  10.299  38.232  0.00  0.00    +0.000 A 
ATOM      8  C   UNL     1      15.186  10.705  38.006  0.00  0.00    +0.000 C 
ATOM      9  C   UNL     1      17.384  10.044  37.126  0.00  0.00    +0.000 A 
ATOM     10  C   UNL     1      18.701   9.666  37.321  0.00  0.00    +0.000 A 
ATOM     11  C   UNL     1      19.515   9.398  36.106  0.00  0.00    +0.000 C 
ATOM     12  C   UNL     1      19.185   9.557  38.601  0.00  0.00    +0.000 A 
ENDBRANCH   1   9
BRANCH   2  13
ATOM     13  C   UNL     1      16.159  11.517  33.817  0.00  0.00    +0.000 A 
ATOM     14  C   UNL     1      16.497  10.613  32.837  0.00  0.00    +0.000 A 
ATOM     15  C   UNL     1      15.971  10.670  31.586  0.00  0.00    +0.000 A 
ATOM     16  C   UNL     1      15.069  11.658  31.273  0.00  0.00    +0.000 A 
ATOM     17  C   UNL     1      14.699  12.589  32.222  0.00  0.00    +0.000 A 
ATOM     18  C   UNL     1      15.268  12.491  33.498  0.00  0.00    +0.000 A 
BRANCH  17  19
ATOM     19  N   UNL     1      13.769  13.616  31.914  0.00  0.00    +0.000 N 
ATOM     20  O   UNL     1      13.317  13.682  30.763  0.00  0.00    +0.000 OA
ATOM     21  O   UNL     1      13.372  14.513  32.847  0.00  0.00    +0.000 OA
ENDBRANCH  17  19
ENDBRANCH   2  13
TORSDOF 3
ENDMDL
MODEL 3
REMARK VINA RESULT:      -7.2      2.620      7.323
REMARK  Name = 
REMARK  3 active torsions:
REMARK  status: ('A' for Active; 'I' for Inactive)
REMARK    1  A    between atoms: C_6  and  N_7
REMARK    2  A    between atoms: C_8  and  C_10
REMARK    3  A    between atoms: C_14  and  N_15
REMARK                            x       y       z     vdW  Elec       q    Type
REMARK                         _______ _______ _______ _____ _____    ______ ____
ROOT
ATOM      1  N   UNL     1      15.932  11.019  35.698  0.00  0.00    +0.000 NA
ATOM      2  C   UNL     1      16.985  11.517  36.512  0.00  0.00    +0.000 C 
ATOM      3  O   UNL     1      17.444  12.642  36.242  0.00  0.00    +0.000 OA
ENDROOT
BRANCH   1   9
ATOM      4  C   UNL     1      13.827  13.942  31.257  0.00  0.00    +0.000 C 
ATOM      5  C   UNL     1      14.389  13.170  32.396  0.00  0.00    +0.000 A 
ATOM      6  C   UNL     1      15.381  12.224  32.228  0.00  0.00    +0.000 A 
ATOM      7  C   UNL     1      15.878  11.523  33.334  0.00  0.00    +0.000 A 
ATOM      8  C   UNL     1      16.946  10.501  33.168  0.00  0.00    +0.000 C 
ATOM      9  C   UNL     1      15.396  11.756  34.605  0.00  0.00    +0.000 A 
ATOM     10  C   UNL     1      14.402  12.704  34.774  0.00  0.00    +0.000 A 
ATOM     11  C   UNL     1      13.907  12.926  36.158  0.00  0.00    +0.000 C 
ATOM     12  C   UNL     1      13.927  13.380  33.677  0.00  0.00    +0.000 A 
ENDBRANCH   1   9
BRANCH   2  13
ATOM     13  C   UNL     1      17.507  10.730  37.624  0.00  0.00    +0.000 A 
ATOM     14  C   UNL     1      18.834  10.371  37.666  0.00  0.00    +0.000 A 
ATOM     15  C   UNL     1      19.355   9.638  38.683  0.00  0.00    +0.000 A 
ATOM     16  C   UNL     1      18.540   9.234  39.714  0.00  0.00    +0.000 A 
ATOM     17  C   UNL     1      17.202   9.569  39.717  0.00  0.00    +0.000 A 
ATOM     18  C   UNL     1      16.711  10.325  38.646  0.00  0.00    +0.000 A 
BRANCH  17  19
ATOM     19  N   UNL     1      16.349   9.159  40.774  0.00  0.00    +0.000 N 
ATOM     20  O   UNL     1      15.165   9.522  40.757  0.00  0.00    +0.000 OA
ATOM     21  O   UNL     1      16.802   8.387  41.789  0.00  0.00    +0.000 OA
ENDBRANCH  17  19
ENDBRANCH   2  13
TORSDOF 3
ENDMDL
MODEL 4
REMARK VINA RESULT:      -6.8     28.335     31.127
REMARK  Name = 
REMARK  3 active torsions:
REMARK  status: ('A' for Active; 'I' for Inactive)
REMARK    1  A    between atoms: C_6  and  N_7
REMARK    2  A    between atoms: C_8  and  C_10
REMARK    3  A    between atoms: C_14  and  N_15
REMARK                            x       y       z     vdW  Elec       q    Type
REMARK                         _______ _______ _______ _____ _____    ______ ____
ROOT
ATOM      1  N   UNL     1      31.306  20.962  10.926  0.00  0.00    +0.000 NA
ATOM      2  C   UNL     1      31.124  22.318  11.310  0.00  0.00    +0.000 C 
ATOM      3  O   UNL     1      32.025  23.127  11.025  0.00  0.00    +0.000 OA
ENDROOT
BRANCH   1   9
ATOM      4  C   UNL     1      35.928  19.158   8.083  0.00  0.00    +0.000 C 
ATOM      5  C   UNL     1      34.714  19.629   8.800  0.00  0.00    +0.000 A 
ATOM      6  C   UNL     1      33.535  19.920   8.144  0.00  0.00    +0.000 A 
ATOM      7  C   UNL     1      32.419  20.360   8.865  0.00  0.00    +0.000 A 
ATOM      8  C   UNL     1      31.142  20.678   8.171  0.00  0.00    +0.000 C 
ATOM      9  C   UNL     1      32.466  20.512  10.236  0.00  0.00    +0.000 A 
ATOM     10  C   UNL     1      33.648  20.220  10.894  0.00  0.00    +0.000 A 
ATOM     11  C   UNL     1      33.661  20.396  12.370  0.00  0.00    +0.000 C 
ATOM     12  C   UNL     1      34.731  19.790  10.169  0.00  0.00    +0.000 A 
ENDBRANCH   1   9
BRANCH   2  13
ATOM     13  C   UNL     1      29.920  22.739  12.018  0.00  0.00    +0.000 A 
ATOM     14  C   UNL     1      29.977  23.108  13.341  0.00  0.00    +0.000 A 
ATOM     15  C   UNL     1      28.877  23.504  14.031  0.00  0.00    +0.000 A 
ATOM     16  C   UNL     1      27.657  23.544  13.399  0.00  0.00    +0.000 A 
ATOM     17  C   UNL     1      27.549  23.183  12.073  0.00  0.00    +0.000 A 
ATOM     18  C   UNL     1      28.710  22.781  11.402  0.00  0.00    +0.000 A 
BRANCH  17  19
ATOM     19  N   UNL     1      26.296  23.218  11.406  0.00  0.00    +0.000 N 
ATOM     20  O   UNL     1      25.940  22.226  10.756  0.00  0.00    +0.000 OA
ATOM     21  O   UNL     1      25.493  24.306  11.469  0.00  0.00    +0.000 OA
ENDBRANCH  17  19
ENDBRANCH   2  13
TORSDOF 3
ENDMDL
MODEL 5
REMARK VINA RESULT:      -6.8      3.448      7.946
REMARK  Name = 
REMARK  3 active torsions:
REMARK  status: ('A' for Active; 'I' for Inactive)
REMARK    1  A    between atoms: C_6  and  N_7
REMARK    2  A    between atoms: C_8  and  C_10
REMARK    3  A    between atoms: C_14  and  N_15
REMARK                            x       y       z     vdW  Elec       q    Type
REMARK                         _______ _______ _______ _____ _____    ______ ____
ROOT
ATOM      1  N   UNL     1      16.807  10.107  37.216  0.00  0.00    +0.000 NA
ATOM      2  C   UNL     1      17.916  10.559  37.982  0.00  0.00    +0.000 C 
ATOM      3  O   UNL     1      18.677  11.395  37.463  0.00  0.00    +0.000 OA
ENDROOT
BRANCH   1   9
ATOM      4  C   UNL     1      15.715  12.046  31.948  0.00  0.00    +0.000 C 
ATOM      5  C   UNL     1      15.984  11.559  33.327  0.00  0.00    +0.000 A 
ATOM      6  C   UNL     1      15.400  12.132  34.439  0.00  0.00    +0.000 A 
ATOM      7  C   UNL     1      15.686  11.638  35.717  0.00  0.00    +0.000 A 
ATOM      8  C   UNL     1      15.064  12.245  36.924  0.00  0.00    +0.000 C 
ATOM      9  C   UNL     1      16.548  10.576  35.898  0.00  0.00    +0.000 A 
ATOM     10  C   UNL     1      17.133  10.000  34.784  0.00  0.00    +0.000 A 
ATOM     11  C   UNL     1      18.057   8.860  35.018  0.00  0.00    +0.000 C 
ATOM     12  C   UNL     1      16.841  10.500  33.539  0.00  0.00    +0.000 A 
ENDBRANCH   1   9
BRANCH   2  13
ATOM     13  C   UNL     1      18.148  10.053  39.331  0.00  0.00    +0.000 A 
ATOM     14  C   UNL     1      19.301  10.369  40.010  0.00  0.00    +0.000 A 
ATOM     15  C   UNL     1      19.551   9.917  41.265  0.00  0.00    +0.000 A 
ATOM     16  C   UNL     1      18.629   9.114  41.893  0.00  0.00    +0.000 A 
ATOM     17  C   UNL     1      17.456   8.768  41.253  0.00  0.00    +0.000 A 
ATOM     18  C   UNL     1      17.243   9.259  39.959  0.00  0.00    +0.000 A 
BRANCH  17  19
ATOM     19  N   UNL     1      16.494   7.940  41.889  0.00  0.00    +0.000 N 
ATOM     20  O   UNL     1      15.302   8.072  41.581  0.00  0.00    +0.000 OA
ATOM     21  O   UNL     1      16.855   7.020  42.813  0.00  0.00    +0.000 OA
ENDBRANCH  17  19
ENDBRANCH   2  13
TORSDOF 3
ENDMDL
MODEL 6
REMARK VINA RESULT:      -6.5      3.399      7.821
REMARK  Name = 
REMARK  3 active torsions:
REMARK  status: ('A' for Active; 'I' for Inactive)
REMARK    1  A    between atoms: C_6  and  N_7
REMARK    2  A    between atoms: C_8  and  C_10
REMARK    3  A    between atoms: C_14  and  N_15
REMARK                            x       y       z     vdW  Elec       q    Type
REMARK                         _______ _______ _______ _____ _____    ______ ____
ROOT
ATOM      1  N   UNL     1      16.528  10.166  37.022  0.00  0.00    +0.000 NA
ATOM      2  C   UNL     1      17.535  10.662  37.894  0.00  0.00    +0.000 C 
ATOM      3  O   UNL     1      18.309  11.531  37.453  0.00  0.00    +0.000 OA
ENDROOT
BRANCH   1   9
ATOM      4  C   UNL     1      15.988  11.966  31.621  0.00  0.00    +0.000 C 
ATOM      5  C   UNL     1      16.145  11.481  33.018  0.00  0.00    +0.000 A 
ATOM      6  C   UNL     1      16.985  10.436  33.346  0.00  0.00    +0.000 A 
ATOM      7  C   UNL     1      17.097  10.015  34.677  0.00  0.00    +0.000 A 
ATOM      8  C   UNL     1      17.998   8.890  35.045  0.00  0.00    +0.000 C 
ATOM      9  C   UNL     1      16.381  10.628  35.684  0.00  0.00    +0.000 A 
ATOM     10  C   UNL     1      15.539  11.676  35.356  0.00  0.00    +0.000 A 
ATOM     11  C   UNL     1      14.784  12.310  36.468  0.00  0.00    +0.000 C 
ATOM     12  C   UNL     1      15.442  12.073  34.045  0.00  0.00    +0.000 A 
ENDBRANCH   1   9
BRANCH   2  13
ATOM     13  C   UNL     1      17.654  10.161  39.260  0.00  0.00    +0.000 A 
ATOM     14  C   UNL     1      16.538   9.771  39.962  0.00  0.00    +0.000 A 
ATOM     15  C   UNL     1      16.609   9.301  41.234  0.00  0.00    +0.000 A 
ATOM     16  C   UNL     1      17.832   9.207  41.855  0.00  0.00    +0.000 A 
ATOM     17  C   UNL     1      18.980   9.588  41.192  0.00  0.00    +0.000 A 
ATOM     18  C   UNL     1      18.857  10.066  39.882  0.00  0.00    +0.000 A 
BRANCH  17  19
ATOM     19  N   UNL     1      20.250   9.496  41.820  0.00  0.00    +0.000 N 
ATOM     20  O   UNL     1      20.592  10.395  42.601  0.00  0.00    +0.000 OA
ATOM     21  O   UNL     1      21.083   8.457  41.582  0.00  0.00    +0.000 OA
ENDBRANCH  17  19
ENDBRANCH   2  13
TORSDOF 3
ENDMDL
MODEL 7
REMARK VINA RESULT:      -6.5     18.333     19.195
REMARK  Name = 
REMARK  3 active torsions:
REMARK  status: ('A' for Active; 'I' for Inactive)
REMARK    1  A    between atoms: C_6  and  N_7
REMARK    2  A    between atoms: C_8  and  C_10
REMARK    3  A    between atoms: C_14  and  N_15
REMARK                            x       y       z     vdW  Elec       q    Type
REMARK                         _______ _______ _______ _____ _____    ______ ____
ROOT
ATOM      1  N   UNL     1      28.984  23.494  27.969  0.00  0.00    +0.000 NA
ATOM      2  C   UNL     1      27.970  22.732  27.328  0.00  0.00    +0.000 C 
ATOM      3  O   UNL     1      27.913  21.515  27.578  0.00  0.00    +0.000 OA
ENDROOT
BRANCH   1   9
ATOM      4  C   UNL     1      32.787  21.158  31.543  0.00  0.00    +0.000 C 
ATOM      5  C   UNL     1      31.814  21.762  30.595  0.00  0.00    +0.000 A 
ATOM      6  C   UNL     1      32.075  21.879  29.245  0.00  0.00    +0.000 A 
ATOM      7  C   UNL     1      31.126  22.456  28.392  0.00  0.00    +0.000 A 
ATOM      8  C   UNL     1      31.394  22.589  26.935  0.00  0.00    +0.000 C 
ATOM      9  C   UNL     1      29.918  22.916  28.874  0.00  0.00    +0.000 A 
ATOM     10  C   UNL     1      29.655  22.798  30.227  0.00  0.00    +0.000 A 
ATOM     11  C   UNL     1      28.344  23.306  30.709  0.00  0.00    +0.000 C 
ATOM     12  C   UNL     1      30.599  22.230  31.046  0.00  0.00    +0.000 A 
ENDBRANCH   1   9
BRANCH   2  13
ATOM     13  C   UNL     1      27.031  23.363  26.406  0.00  0.00    +0.000 A 
ATOM     14  C   UNL     1      26.151  24.322  26.849  0.00  0.00    +0.000 A 
ATOM     15  C   UNL     1      25.263  24.930  26.021  0.00  0.00    +0.000 A 
ATOM     16  C   UNL     1      25.231  24.586  24.690  0.00  0.00    +0.000 A 
ATOM     17  C   UNL     1      26.094  23.629  24.198  0.00  0.00    +0.000 A 
ATOM     18  C   UNL     1      26.992  23.030  25.090  0.00  0.00    +0.000 A 
BRANCH  17  19
ATOM     19  N   UNL     1      26.073  23.263  22.827  0.00  0.00    +0.000 N 
ATOM     20  O   UNL     1      25.078  22.675  22.384  0.00  0.00    +0.000 OA
ATOM     21  O   UNL     1      27.111  23.544  22.005  0.00  0.00    +0.000 OA
ENDBRANCH  17  19
ENDBRANCH   2  13
TORSDOF 3
ENDMDL
MODEL 8
REMARK VINA RESULT:      -6.5     20.054     22.288
REMARK  Name = 
REMARK  3 active torsions:
REMARK  status: ('A' for Active; 'I' for Inactive)
REMARK    1  A    between atoms: C_6  and  N_7
REMARK    2  A    between atoms: C_8  and  C_10
REMARK    3  A    between atoms: C_14  and  N_15
REMARK                            x       y       z     vdW  Elec       q    Type
REMARK                         _______ _______ _______ _____ _____    ______ ____
ROOT
ATOM      1  N   UNL     1      33.932   0.041  34.696  0.00  0.00    +0.000 NA
ATOM      2  C   UNL     1      32.747  -0.743  34.679  0.00  0.00    +0.000 C 
ATOM      3  O   UNL     1      31.669  -0.170  34.920  0.00  0.00    +0.000 OA
ENDROOT
BRANCH   1   9
ATOM      4  C   UNL     1      33.884   5.665  35.735  0.00  0.00    +0.000 C 
ATOM      5  C   UNL     1      33.895   4.207  35.441  0.00  0.00    +0.000 A 
ATOM      6  C   UNL     1      33.842   3.715  34.152  0.00  0.00    +0.000 A 
ATOM      7  C   UNL     1      33.854   2.333  33.927  0.00  0.00    +0.000 A 
ATOM      8  C   UNL     1      33.797   1.788  32.544  0.00  0.00    +0.000 C 
ATOM      9  C   UNL     1      33.922   1.437  34.974  0.00  0.00    +0.000 A 
ATOM     10  C   UNL     1      33.976   1.930  36.266  0.00  0.00    +0.000 A 
ATOM     11  C   UNL     1      34.046   0.935  37.368  0.00  0.00    +0.000 C 
ATOM     12  C   UNL     1      33.962   3.288  36.466  0.00  0.00    +0.000 A 
ENDBRANCH   1   9
BRANCH   2  13
ATOM     13  C   UNL     1      32.801  -2.172  34.389  0.00  0.00    +0.000 A 
ATOM     14  C   UNL     1      33.571  -2.649  33.355  0.00  0.00    +0.000 A 
ATOM     15  C   UNL     1      33.645  -3.971  33.056  0.00  0.00    +0.000 A 
ATOM     16  C   UNL     1      32.931  -4.877  33.804  0.00  0.00    +0.000 A 
ATOM     17  C   UNL     1      32.143  -4.447  34.851  0.00  0.00    +0.000 A 
ATOM     18  C   UNL     1      32.098  -3.074  35.122  0.00  0.00    +0.000 A 
BRANCH  17  19
ATOM     19  N   UNL     1      31.400  -5.370  35.633  0.00  0.00    +0.000 N 
ATOM     20  O   UNL     1      31.629  -5.439  36.848  0.00  0.00    +0.000 OA
ATOM     21  O   UNL     1      30.456  -6.166  35.079  0.00  0.00    +0.000 OA
ENDBRANCH  17  19
ENDBRANCH   2  13
TORSDOF 3
ENDMDL
MODEL 9
REMARK VINA RESULT:      -6.5     20.113     22.550
REMARK  Name = 
REMARK  3 active torsions:
REMARK  status: ('A' for Active; 'I' for Inactive)
REMARK    1  A    between atoms: C_6  and  N_7
REMARK    2  A    between atoms: C_8  and  C_10
REMARK    3  A    between atoms: C_14  and  N_15
REMARK                            x       y       z     vdW  Elec       q    Type
REMARK                         _______ _______ _______ _____ _____    ______ ____
ROOT
ATOM      1  N   UNL     1      33.979   0.012  34.764  0.00  0.00    +0.000 NA
ATOM      2  C   UNL     1      32.817  -0.806  34.803  0.00  0.00    +0.000 C 
ATOM      3  O   UNL     1      31.714  -0.241  34.907  0.00  0.00    +0.000 OA
ENDROOT
BRANCH   1   9
ATOM      4  C   UNL     1      33.725   5.721  34.984  0.00  0.00    +0.000 C 
ATOM      5  C   UNL     1      33.789   4.238  34.902  0.00  0.00    +0.000 A 
ATOM      6  C   UNL     1      33.765   3.564  33.698  0.00  0.00    +0.000 A 
ATOM      7  C   UNL     1      33.828   2.165  33.673  0.00  0.00    +0.000 A 
ATOM      8  C   UNL     1      33.802   1.426  32.383  0.00  0.00    +0.000 C 
ATOM      9  C   UNL     1      33.917   1.432  34.839  0.00  0.00    +0.000 A 
ATOM     10  C   UNL     1      33.942   2.108  36.046  0.00  0.00    +0.000 A 
ATOM     11  C   UNL     1      34.037   1.284  37.280  0.00  0.00    +0.000 C 
ATOM     12  C   UNL     1      33.879   3.479  36.049  0.00  0.00    +0.000 A 
ENDBRANCH   1   9
BRANCH   2  13
ATOM     13  C   UNL     1      32.924  -2.259  34.724  0.00  0.00    +0.000 A 
ATOM     14  C   UNL     1      32.537  -3.048  35.781  0.00  0.00    +0.000 A 
ATOM     15  C   UNL     1      32.623  -4.403  35.744  0.00  0.00    +0.000 A 
ATOM     16  C   UNL     1      33.111  -5.021  34.618  0.00  0.00    +0.000 A 
ATOM     17  C   UNL     1      33.512  -4.272  33.531  0.00  0.00    +0.000 A 
ATOM     18  C   UNL     1      33.405  -2.878  33.616  0.00  0.00    +0.000 A 
BRANCH  17  19
ATOM     19  N   UNL     1      34.018  -4.896  32.361  0.00  0.00    +0.000 N 
ATOM     20  O   UNL     1      35.056  -5.565  32.446  0.00  0.00    +0.000 OA
ATOM     21  O   UNL     1      33.391  -4.773  31.168  0.00  0.00    +0.000 OA
ENDBRANCH  17  19
ENDBRANCH   2  13
TORSDOF 3
ENDMDL
MODEL 10
REMARK VINA RESULT:      -6.4     18.715     20.011
REMARK  Name = 
REMARK  3 active torsions:
REMARK  status: ('A' for Active; 'I' for Inactive)
REMARK    1  A    between atoms: C_6  and  N_7
REMARK    2  A    between atoms: C_8  and  C_10
REMARK    3  A    between atoms: C_14  and  N_15
REMARK                            x       y       z     vdW  Elec       q    Type
REMARK                         _______ _______ _______ _____ _____    ______ ____
ROOT
ATOM      1  N   UNL     1      28.434  22.679  26.925  0.00  0.00    +0.000 NA
ATOM      2  C   UNL     1      28.203  23.885  26.209  0.00  0.00    +0.000 C 
ATOM      3  O   UNL     1      28.428  24.960  26.794  0.00  0.00    +0.000 OA
ENDROOT
BRANCH   1   9
ATOM      4  C   UNL     1      30.414  22.623  32.290  0.00  0.00    +0.000 C 
ATOM      5  C   UNL     1      29.923  22.636  30.887  0.00  0.00    +0.000 A 
ATOM      6  C   UNL     1      30.777  22.564  29.805  0.00  0.00    +0.000 A 
ATOM      7  C   UNL     1      30.265  22.580  28.502  0.00  0.00    +0.000 A 
ATOM      8  C   UNL     1      31.174  22.503  27.326  0.00  0.00    +0.000 C 
ATOM      9  C   UNL     1      28.908  22.666  28.267  0.00  0.00    +0.000 A 
ATOM     10  C   UNL     1      28.051  22.738  29.351  0.00  0.00    +0.000 A 
ATOM     11  C   UNL     1      26.597  22.831  29.058  0.00  0.00    +0.000 C 
ATOM     12  C   UNL     1      28.573  22.722  30.621  0.00  0.00    +0.000 A 
ENDBRANCH   1   9
BRANCH   2  13
ATOM     13  C   UNL     1      27.716  23.855  24.833  0.00  0.00    +0.000 A 
ATOM     14  C   UNL     1      26.504  23.280  24.532  0.00  0.00    +0.000 A 
ATOM     15  C   UNL     1      26.019  23.233  23.264  0.00  0.00    +0.000 A 
ATOM     16  C   UNL     1      26.754  23.775  22.236  0.00  0.00    +0.000 A 
ATOM     17  C   UNL     1      27.976  24.363  22.489  0.00  0.00    +0.000 A 
ATOM     18  C   UNL     1      28.435  24.387  23.812  0.00  0.00    +0.000 A 
BRANCH  17  19
ATOM     19  N   UNL     1      28.746  24.927  21.438  0.00  0.00    +0.000 N 
ATOM     20  O   UNL     1      29.683  24.267  20.969  0.00  0.00    +0.000 OA
ATOM     21  O   UNL     1      28.476  26.158  20.947  0.00  0.00    +0.000 OA
ENDBRANCH  17  19
ENDBRANCH   2  13
TORSDOF 3
ENDMDL
