MODEL 1
REMARK VINA RESULT:      -7.6      0.000      0.000
REMARK  Name = 
REMARK  3 active torsions:
REMARK  status: ('A' for Active; 'I' for Inactive)
REMARK    1  A    between atoms: C_8  and  N_9
REMARK    2  A    between atoms: C_10  and  C_12
REMARK    3  A    between atoms: C_16  and  N_17
REMARK                            x       y       z     vdW  Elec       q    Type
REMARK                         _______ _______ _______ _____ _____    ______ ____
ROOT
ATOM      1  N   UNL     1      15.354  11.122  36.283  0.00  0.00    +0.000 NA
ATOM      2  C   UNL     1      15.536  12.413  35.805  0.00  0.00    +0.000 C 
ATOM      3  O   UNL     1      16.323  13.174  36.423  0.00  0.00    +0.000 OA
ENDROOT
BRANCH   1  11
ATOM      4  C   UNL     1      13.917  11.062  38.642  0.00  0.00    +0.000 C 
ATOM      5  C   UNL     1      15.300  10.547  38.627  0.00  0.00    +0.000 A 
ATOM      6  C   UNL     1      15.898  10.037  39.781  0.00  0.00    +0.000 A 
ATOM      7  C   UNL     1      17.187   9.584  39.713  0.00  0.00    +0.000 A 
ATOM      8  C   UNL     1      17.919   9.611  38.552  0.00  0.00    +0.000 A 
ATOM      9  F   UNL     1      19.216   9.157  38.499  0.00  0.00    +0.000 F 
ATOM     10  C   UNL     1      17.328  10.118  37.395  0.00  0.00    +0.000 A 
ATOM     11  C   UNL     1      16.015  10.583  37.447  0.00  0.00    +0.000 A 
ENDBRANCH   1  11
BRANCH   2  12
ATOM     12  C   UNL     1      14.861  12.925  34.629  0.00  0.00    +0.000 A 
ATOM     13  C   UNL     1      13.879  13.921  34.749  0.00  0.00    +0.000 A 
ATOM     14  C   UNL     1      13.252  14.477  33.662  0.00  0.00    +0.000 A 
ATOM     15  C   UNL     1      13.611  14.028  32.390  0.00  0.00    +0.000 A 
ATOM     16  C   UNL     1      14.577  13.039  32.204  0.00  0.00    +0.000 A 
ATOM     17  C   UNL     1      15.168  12.523  33.331  0.00  0.00    +0.000 A 
ATOM     18  C   UNL     1      16.195  11.459  33.163  0.00  0.00    +0.000 C 
BRANCH  16  19
ATOM     19  N   UNL     1      14.862  12.634  30.874  0.00  0.00    +0.000 N 
ATOM     20  O   UNL     1      15.539  13.299  30.071  0.00  0.00    +0.000 OA
ATOM     21  O   UNL     1      14.388  11.420  30.378  0.00  0.00    +0.000 OA
ENDBRANCH  16  19
ENDBRANCH   2  12
TORSDOF 3
ENDMDL
MODEL 2
REMARK VINA RESULT:      -7.5      3.214      7.150
REMARK  Name = 
REMARK  3 active torsions:
REMARK  status: ('A' for Active; 'I' for Inactive)
REMARK    1  A    between atoms: C_8  and  N_9
REMARK    2  A    between atoms: C_10  and  C_12
REMARK    3  A    between atoms: C_16  and  N_17
REMARK                            x       y       z     vdW  Elec       q    Type
REMARK                         _______ _______ _______ _____ _____    ______ ____
ROOT
ATOM      1  N   UNL     1      15.306  11.271  34.874  0.00  0.00    +0.000 NA
ATOM      2  C   UNL     1      15.683  11.931  36.037  0.00  0.00    +0.000 C 
ATOM      3  O   UNL     1      15.973  13.151  35.964  0.00  0.00    +0.000 OA
ENDROOT
BRANCH   1  11
ATOM      4  C   UNL     1      17.082  10.418  32.936  0.00  0.00    +0.000 C 
ATOM      5  C   UNL     1      16.100  11.468  32.603  0.00  0.00    +0.000 A 
ATOM      6  C   UNL     1      16.054  12.044  31.332  0.00  0.00    +0.000 A 
ATOM      7  C   UNL     1      15.132  13.023  31.081  0.00  0.00    +0.000 A 
ATOM      8  C   UNL     1      14.246  13.464  32.032  0.00  0.00    +0.000 A 
ATOM      9  F   UNL     1      13.328  14.452  31.769  0.00  0.00    +0.000 F 
ATOM     10  C   UNL     1      14.285  12.893  33.305  0.00  0.00    +0.000 A 
ATOM     11  C   UNL     1      15.218  11.893  33.576  0.00  0.00    +0.000 A 
ENDBRANCH   1  11
BRANCH   2  12
ATOM     12  C   UNL     1      15.758  11.278  37.329  0.00  0.00    +0.000 A 
ATOM     13  C   UNL     1      14.613  11.159  38.133  0.00  0.00    +0.000 A 
ATOM     14  C   UNL     1      14.621  10.502  39.338  0.00  0.00    +0.000 A 
ATOM     15  C   UNL     1      15.818   9.932  39.774  0.00  0.00    +0.000 A 
ATOM     16  C   UNL     1      16.990  10.018  39.023  0.00  0.00    +0.000 A 
ATOM     17  C   UNL     1      16.918  10.688  37.826  0.00  0.00    +0.000 A 
ATOM     18  C   UNL     1      18.156  10.804  37.008  0.00  0.00    +0.000 C 
BRANCH  16  19
ATOM     19  N   UNL     1      18.163   9.423  39.556  0.00  0.00    +0.000 N 
ATOM     20  O   UNL     1      18.922   9.978  40.368  0.00  0.00    +0.000 OA
ATOM     21  O   UNL     1      18.538   8.131  39.190  0.00  0.00    +0.000 OA
ENDBRANCH  16  19
ENDBRANCH   2  12
TORSDOF 3
ENDMDL
MODEL 3
REMARK VINA RESULT:      -7.5      3.206      7.418
REMARK  Name = 
REMARK  3 active torsions:
REMARK  status: ('A' for Active; 'I' for Inactive)
REMARK    1  A    between atoms: C_8  and  N_9
REMARK    2  A    between atoms: C_10  and  C_12
REMARK    3  A    between atoms: C_16  and  N_17
REMARK                            x       y       z     vdW  Elec       q    Type
REMARK                         _______ _______ _______ _____ _____    ______ ____
ROOT
ATOM      1  N   UNL     1      15.685  11.357  35.350  0.00  0.00    +0.000 NA
ATOM      2  C   UNL     1      16.608  11.760  36.307  0.00  0.00    +0.000 C 
ATOM      3  O   UNL     1      16.878  12.984  36.398  0.00  0.00    +0.000 OA
ENDROOT
BRANCH   1  11
ATOM      4  C   UNL     1      16.109  10.994  32.644  0.00  0.00    +0.000 C 
ATOM      5  C   UNL     1      15.208  12.072  33.094  0.00  0.00    +0.000 A 
ATOM      6  C   UNL     1      14.571  12.916  32.182  0.00  0.00    +0.000 A 
ATOM      7  C   UNL     1      13.756  13.907  32.655  0.00  0.00    +0.000 A 
ATOM      8  C   UNL     1      13.537  14.107  33.995  0.00  0.00    +0.000 A 
ATOM      9  F   UNL     1      12.720  15.111  34.458  0.00  0.00    +0.000 F 
ATOM     10  C   UNL     1      14.170  13.268  34.913  0.00  0.00    +0.000 A 
ATOM     11  C   UNL     1      15.002  12.252  34.447  0.00  0.00    +0.000 A 
ENDBRANCH   1  11
BRANCH   2  12
ATOM     12  C   UNL     1      17.274  10.837  37.203  0.00  0.00    +0.000 A 
ATOM     13  C   UNL     1      18.571  10.381  36.919  0.00  0.00    +0.000 A 
ATOM     14  C   UNL     1      19.265   9.550  37.764  0.00  0.00    +0.000 A 
ATOM     15  C   UNL     1      18.649   9.149  38.951  0.00  0.00    +0.000 A 
ATOM     16  C   UNL     1      17.361   9.565  39.289  0.00  0.00    +0.000 A 
ATOM     17  C   UNL     1      16.720  10.395  38.402  0.00  0.00    +0.000 A 
ATOM     18  C   UNL     1      15.340  10.847  38.733  0.00  0.00    +0.000 C 
BRANCH  16  19
ATOM     19  N   UNL     1      16.811   9.090  40.508  0.00  0.00    +0.000 N 
ATOM     20  O   UNL     1      16.447   9.824  41.443  0.00  0.00    +0.000 OA
ATOM     21  O   UNL     1      16.634   7.725  40.729  0.00  0.00    +0.000 OA
ENDBRANCH  16  19
ENDBRANCH   2  12
TORSDOF 3
ENDMDL
MODEL 4
REMARK VINA RESULT:      -7.2      1.384      2.131
REMARK  Name = 
REMARK  3 active torsions:
REMARK  status: ('A' for Active; 'I' for Inactive)
REMARK    1  A    between atoms: C_8  and  N_9
REMARK    2  A    between atoms: C_10  and  C_12
REMARK    3  A    between atoms: C_16  and  N_17
REMARK                            x       y       z     vdW  Elec       q    Type
REMARK                         _______ _______ _______ _____ _____    ______ ____
ROOT
ATOM      1  N   UNL     1      16.338  10.549  36.718  0.00  0.00    +0.000 NA
ATOM      2  C   UNL     1      16.275  11.878  36.317  0.00  0.00    +0.000 C 
ATOM      3  O   UNL     1      16.928  12.730  36.969  0.00  0.00    +0.000 OA
ENDROOT
BRANCH   1  11
ATOM      4  C   UNL     1      18.849   9.528  36.181  0.00  0.00    +0.000 C 
ATOM      5  C   UNL     1      18.369   9.565  37.575  0.00  0.00    +0.000 A 
ATOM      6  C   UNL     1      19.155   9.089  38.627  0.00  0.00    +0.000 A 
ATOM      7  C   UNL     1      18.655   9.135  39.900  0.00  0.00    +0.000 A 
ATOM      8  C   UNL     1      17.408   9.633  40.186  0.00  0.00    +0.000 A 
ATOM      9  F   UNL     1      16.916   9.668  41.469  0.00  0.00    +0.000 F 
ATOM     10  C   UNL     1      16.618  10.111  39.141  0.00  0.00    +0.000 A 
ATOM     11  C   UNL     1      17.113  10.072  37.838  0.00  0.00    +0.000 A 
ENDBRANCH   1  11
BRANCH   2  12
ATOM     12  C   UNL     1      15.491  12.326  35.184  0.00  0.00    +0.000 A 
ATOM     13  C   UNL     1      14.451  13.253  35.360  0.00  0.00    +0.000 A 
ATOM     14  C   UNL     1      13.717  13.750  34.312  0.00  0.00    +0.000 A 
ATOM     15  C   UNL     1      14.023  13.310  33.023  0.00  0.00    +0.000 A 
ATOM     16  C   UNL     1      15.042  12.389  32.782  0.00  0.00    +0.000 A 
ATOM     17  C   UNL     1      15.740  11.929  33.872  0.00  0.00    +0.000 A 
ATOM     18  C   UNL     1      16.826  10.937  33.645  0.00  0.00    +0.000 C 
BRANCH  16  19
ATOM     19  N   UNL     1      15.268  11.988  31.439  0.00  0.00    +0.000 N 
ATOM     20  O   UNL     1      16.080  12.535  30.673  0.00  0.00    +0.000 OA
ATOM     21  O   UNL     1      14.572  10.913  30.887  0.00  0.00    +0.000 OA
ENDBRANCH  16  19
ENDBRANCH   2  12
TORSDOF 3
ENDMDL
MODEL 5
REMARK VINA RESULT:      -7.0      1.919      2.727
REMARK  Name = 
REMARK  3 active torsions:
REMARK  status: ('A' for Active; 'I' for Inactive)
REMARK    1  A    between atoms: C_8  and  N_9
REMARK    2  A    between atoms: C_10  and  C_12
REMARK    3  A    between atoms: C_16  and  N_17
REMARK                            x       y       z     vdW  Elec       q    Type
REMARK                         _______ _______ _______ _____ _____    ______ ____
ROOT
ATOM      1  N   UNL     1      17.273  11.089  35.932  0.00  0.00    +0.000 NA
ATOM      2  C   UNL     1      16.852  10.322  34.853  0.00  0.00    +0.000 C 
ATOM      3  O   UNL     1      16.925   9.071  34.945  0.00  0.00    +0.000 OA
ENDROOT
BRANCH   1  11
ATOM      4  C   UNL     1      15.512  10.854  38.049  0.00  0.00    +0.000 C 
ATOM      5  C   UNL     1      16.913  10.424  38.225  0.00  0.00    +0.000 A 
ATOM      6  C   UNL     1      17.367   9.907  39.440  0.00  0.00    +0.000 A 
ATOM      7  C   UNL     1      18.679   9.535  39.551  0.00  0.00    +0.000 A 
ATOM      8  C   UNL     1      19.570   9.650  38.514  0.00  0.00    +0.000 A 
ATOM      9  F   UNL     1      20.887   9.277  38.641  0.00  0.00    +0.000 F 
ATOM     10  C   UNL     1      19.123  10.165  37.296  0.00  0.00    +0.000 A 
ATOM     11  C   UNL     1      17.789  10.547  37.166  0.00  0.00    +0.000 A 
ENDBRANCH   1  11
BRANCH   2  12
ATOM     12  C   UNL     1      16.333  10.896  33.628  0.00  0.00    +0.000 A 
ATOM     13  C   UNL     1      16.731  10.388  32.381  0.00  0.00    +0.000 A 
ATOM     14  C   UNL     1      16.226  10.861  31.195  0.00  0.00    +0.000 A 
ATOM     15  C   UNL     1      15.280  11.887  31.240  0.00  0.00    +0.000 A 
ATOM     16  C   UNL     1      14.847  12.435  32.446  0.00  0.00    +0.000 A 
ATOM     17  C   UNL     1      15.389  11.919  33.598  0.00  0.00    +0.000 A 
ATOM     18  C   UNL     1      14.952  12.493  34.901  0.00  0.00    +0.000 C 
BRANCH  16  19
ATOM     19  N   UNL     1      13.895  13.487  32.392  0.00  0.00    +0.000 N 
ATOM     20  O   UNL     1      13.615  14.227  33.350  0.00  0.00    +0.000 OA
ATOM     21  O   UNL     1      13.202  13.763  31.214  0.00  0.00    +0.000 OA
ENDBRANCH  16  19
ENDBRANCH   2  12
TORSDOF 3
ENDMDL
MODEL 6
REMARK VINA RESULT:      -6.7      1.764      2.537
REMARK  Name = 
REMARK  3 active torsions:
REMARK  status: ('A' for Active; 'I' for Inactive)
REMARK    1  A    between atoms: C_8  and  N_9
REMARK    2  A    between atoms: C_10  and  C_12
REMARK    3  A    between atoms: C_16  and  N_17
REMARK                            x       y       z     vdW  Elec       q    Type
REMARK                         _______ _______ _______ _____ _____    ______ ____
ROOT
ATOM      1  N   UNL     1      17.183  10.102  37.640  0.00  0.00    +0.000 NA
ATOM      2  C   UNL     1      17.233  11.328  36.989  0.00  0.00    +0.000 C 
ATOM      3  O   UNL     1      18.130  12.144  37.319  0.00  0.00    +0.000 OA
ENDROOT
BRANCH   1  11
ATOM      4  C   UNL     1      16.156   9.765  40.183  0.00  0.00    +0.000 C 
ATOM      5  C   UNL     1      17.591   9.518  39.947  0.00  0.00    +0.000 A 
ATOM      6  C   UNL     1      18.441   9.124  40.982  0.00  0.00    +0.000 A 
ATOM      7  C   UNL     1      19.766   8.921  40.709  0.00  0.00    +0.000 A 
ATOM      8  C   UNL     1      20.297   9.089  39.455  0.00  0.00    +0.000 A 
ATOM      9  F   UNL     1      21.631   8.887  39.196  0.00  0.00    +0.000 F 
ATOM     10  C   UNL     1      19.454   9.482  38.415  0.00  0.00    +0.000 A 
ATOM     11  C   UNL     1      18.100   9.692  38.676  0.00  0.00    +0.000 A 
ENDBRANCH   1  11
BRANCH   2  12
ATOM     12  C   UNL     1      16.299  11.710  35.948  0.00  0.00    +0.000 A 
ATOM     13  C   UNL     1      15.252  12.604  36.225  0.00  0.00    +0.000 A 
ATOM     14  C   UNL     1      14.377  13.039  35.261  0.00  0.00    +0.000 A 
ATOM     15  C   UNL     1      14.541  12.569  33.957  0.00  0.00    +0.000 A 
ATOM     16  C   UNL     1      15.559  11.678  33.619  0.00  0.00    +0.000 A 
ATOM     17  C   UNL     1      16.403  11.281  34.627  0.00  0.00    +0.000 A 
ATOM     18  C   UNL     1      17.493  10.322  34.297  0.00  0.00    +0.000 C 
BRANCH  16  19
ATOM     19  N   UNL     1      15.637  11.242  32.270  0.00  0.00    +0.000 N 
ATOM     20  O   UNL     1      15.112  10.201  31.841  0.00  0.00    +0.000 OA
ATOM     21  O   UNL     1      16.325  11.990  31.316  0.00  0.00    +0.000 OA
ENDBRANCH  16  19
ENDBRANCH   2  12
TORSDOF 3
ENDMDL
MODEL 7
REMARK VINA RESULT:      -6.6     21.898     23.506
REMARK  Name = 
REMARK  3 active torsions:
REMARK  status: ('A' for Active; 'I' for Inactive)
REMARK    1  A    between atoms: C_8  and  N_9
REMARK    2  A    between atoms: C_10  and  C_12
REMARK    3  A    between atoms: C_16  and  N_17
REMARK                            x       y       z     vdW  Elec       q    Type
REMARK                         _______ _______ _______ _____ _____    ______ ____
ROOT
ATOM      1  N   UNL     1      22.790  -7.501  25.327  0.00  0.00    +0.000 NA
ATOM      2  C   UNL     1      21.484  -7.508  24.853  0.00  0.00    +0.000 C 
ATOM      3  O   UNL     1      21.283  -7.844  23.659  0.00  0.00    +0.000 OA
ENDROOT
BRANCH   1  11
ATOM      4  C   UNL     1      23.473 -10.177  25.227  0.00  0.00    +0.000 C 
ATOM      5  C   UNL     1      24.287  -9.197  24.483  0.00  0.00    +0.000 A 
ATOM      6  C   UNL     1      25.398  -9.593  23.736  0.00  0.00    +0.000 A 
ATOM      7  C   UNL     1      26.125  -8.640  23.076  0.00  0.00    +0.000 A 
ATOM      8  C   UNL     1      25.806  -7.306  23.118  0.00  0.00    +0.000 A 
ATOM      9  F   UNL     1      26.548  -6.358  22.454  0.00  0.00    +0.000 F 
ATOM     10  C   UNL     1      24.696  -6.903  23.862  0.00  0.00    +0.000 A 
ATOM     11  C   UNL     1      23.944  -7.861  24.540  0.00  0.00    +0.000 A 
ENDBRANCH   1  11
BRANCH   2  12
ATOM     12  C   UNL     1      20.343  -7.146  25.671  0.00  0.00    +0.000 A 
ATOM     13  C   UNL     1      19.930  -5.807  25.762  0.00  0.00    +0.000 A 
ATOM     14  C   UNL     1      18.825  -5.421  26.478  0.00  0.00    +0.000 A 
ATOM     15  C   UNL     1      18.087  -6.406  27.138  0.00  0.00    +0.000 A 
ATOM     16  C   UNL     1      18.446  -7.752  27.088  0.00  0.00    +0.000 A 
ATOM     17  C   UNL     1      19.563  -8.074  26.356  0.00  0.00    +0.000 A 
ATOM     18  C   UNL     1      19.976  -9.503  26.294  0.00  0.00    +0.000 C 
BRANCH  16  19
ATOM     19  N   UNL     1      17.645  -8.678  27.806  0.00  0.00    +0.000 N 
ATOM     20  O   UNL     1      17.847  -9.010  28.987  0.00  0.00    +0.000 OA
ATOM     21  O   UNL     1      16.543  -9.285  27.206  0.00  0.00    +0.000 OA
ENDBRANCH  16  19
ENDBRANCH   2  12
TORSDOF 3
ENDMDL
MODEL 8
REMARK VINA RESULT:      -6.6     18.363     19.857
REMARK  Name = 
REMARK  3 active torsions:
REMARK  status: ('A' for Active; 'I' for Inactive)
REMARK    1  A    between atoms: C_8  and  N_9
REMARK    2  A    between atoms: C_10  and  C_12
REMARK    3  A    between atoms: C_16  and  N_17
REMARK                            x       y       z     vdW  Elec       q    Type
REMARK                         _______ _______ _______ _____ _____    ______ ____
ROOT
ATOM      1  N   UNL     1      28.046  22.591  26.589  0.00  0.00    +0.000 NA
ATOM      2  C   UNL     1      27.434  23.657  25.942  0.00  0.00    +0.000 C 
ATOM      3  O   UNL     1      27.032  24.625  26.634  0.00  0.00    +0.000 OA
ENDROOT
BRANCH   1  11
ATOM      4  C   UNL     1      30.592  23.131  27.518  0.00  0.00    +0.000 C 
ATOM      5  C   UNL     1      29.529  22.790  28.483  0.00  0.00    +0.000 A 
ATOM      6  C   UNL     1      29.786  22.729  29.855  0.00  0.00    +0.000 A 
ATOM      7  C   UNL     1      28.766  22.396  30.704  0.00  0.00    +0.000 A 
ATOM      8  C   UNL     1      27.497  22.119  30.262  0.00  0.00    +0.000 A 
ATOM      9  F   UNL     1      26.483  21.780  31.126  0.00  0.00    +0.000 F 
ATOM     10  C   UNL     1      27.233  22.179  28.893  0.00  0.00    +0.000 A 
ATOM     11  C   UNL     1      28.260  22.517  28.014  0.00  0.00    +0.000 A 
ENDBRANCH   1  11
BRANCH   2  12
ATOM     12  C   UNL     1      27.236  23.703  24.507  0.00  0.00    +0.000 A 
ATOM     13  C   UNL     1      26.072  23.171  23.931  0.00  0.00    +0.000 A 
ATOM     14  C   UNL     1      25.814  23.241  22.585  0.00  0.00    +0.000 A 
ATOM     15  C   UNL     1      26.752  23.868  21.763  0.00  0.00    +0.000 A 
ATOM     16  C   UNL     1      27.929  24.414  22.273  0.00  0.00    +0.000 A 
ATOM     17  C   UNL     1      28.129  24.312  23.628  0.00  0.00    +0.000 A 
ATOM     18  C   UNL     1      29.383  24.878  24.199  0.00  0.00    +0.000 C 
BRANCH  16  19
ATOM     19  N   UNL     1      28.831  25.016  21.357  0.00  0.00    +0.000 N 
ATOM     20  O   UNL     1      29.719  24.401  20.743  0.00  0.00    +0.000 OA
ATOM     21  O   UNL     1      28.763  26.381  21.080  0.00  0.00    +0.000 OA
ENDBRANCH  16  19
ENDBRANCH   2  12
TORSDOF 3
ENDMDL
MODEL 9
REMARK VINA RESULT:      -6.6      3.786      7.566
REMARK  Name = 
REMARK  3 active torsions:
REMARK  status: ('A' for Active; 'I' for Inactive)
REMARK    1  A    between atoms: C_8  and  N_9
REMARK    2  A    between atoms: C_10  and  C_12
REMARK    3  A    between atoms: C_16  and  N_17
REMARK                            x       y       z     vdW  Elec       q    Type
REMARK                         _______ _______ _______ _____ _____    ______ ____
ROOT
ATOM      1  N   UNL     1      17.364  11.090  35.875  0.00  0.00    +0.000 NA
ATOM      2  C   UNL     1      17.708   9.897  36.498  0.00  0.00    +0.000 C 
ATOM      3  O   UNL     1      17.396   8.818  35.935  0.00  0.00    +0.000 OA
ENDROOT
BRANCH   1  11
ATOM      4  C   UNL     1      15.115  12.693  35.775  0.00  0.00    +0.000 C 
ATOM      5  C   UNL     1      15.549  11.983  34.557  0.00  0.00    +0.000 A 
ATOM      6  C   UNL     1      14.843  12.099  33.358  0.00  0.00    +0.000 A 
ATOM      7  C   UNL     1      15.282  11.408  32.262  0.00  0.00    +0.000 A 
ATOM      8  C   UNL     1      16.393  10.603  32.293  0.00  0.00    +0.000 A 
ATOM      9  F   UNL     1      16.821   9.910  31.185  0.00  0.00    +0.000 F 
ATOM     10  C   UNL     1      17.104  10.482  33.487  0.00  0.00    +0.000 A 
ATOM     11  C   UNL     1      16.670  11.181  34.613  0.00  0.00    +0.000 A 
ENDBRANCH   1  11
BRANCH   2  12
ATOM     12  C   UNL     1      18.410   9.839  37.764  0.00  0.00    +0.000 A 
ATOM     13  C   UNL     1      17.695   9.805  38.972  0.00  0.00    +0.000 A 
ATOM     14  C   UNL     1      18.311   9.694  40.194  0.00  0.00    +0.000 A 
ATOM     15  C   UNL     1      19.704   9.612  40.227  0.00  0.00    +0.000 A 
ATOM     16  C   UNL     1      20.472   9.643  39.063  0.00  0.00    +0.000 A 
ATOM     17  C   UNL     1      19.796   9.755  37.872  0.00  0.00    +0.000 A 
ATOM     18  C   UNL     1      20.590   9.801  36.614  0.00  0.00    +0.000 C 
BRANCH  16  19
ATOM     19  N   UNL     1      21.883   9.571  39.197  0.00  0.00    +0.000 N 
ATOM     20  O   UNL     1      22.521   8.510  39.317  0.00  0.00    +0.000 OA
ATOM     21  O   UNL     1      22.661  10.727  39.196  0.00  0.00    +0.000 OA
ENDBRANCH  16  19
ENDBRANCH   2  12
TORSDOF 3
ENDMDL
MODEL 10
REMARK VINA RESULT:      -6.5     18.664     20.822
REMARK  Name = 
REMARK  3 active torsions:
REMARK  status: ('A' for Active; 'I' for Inactive)
REMARK    1  A    between atoms: C_8  and  N_9
REMARK    2  A    between atoms: C_10  and  C_12
REMARK    3  A    between atoms: C_16  and  N_17
REMARK                            x       y       z     vdW  Elec       q    Type
REMARK                         _______ _______ _______ _____ _____    ______ ____
ROOT
ATOM      1  N   UNL     1      28.364  24.359  25.569  0.00  0.00    +0.000 NA
ATOM      2  C   UNL     1      28.854  23.215  26.187  0.00  0.00    +0.000 C 
ATOM      3  O   UNL     1      29.320  22.299  25.464  0.00  0.00    +0.000 OA
ENDROOT
BRANCH   1  11
ATOM      4  C   UNL     1      30.476  25.779  24.493  0.00  0.00    +0.000 C 
ATOM      5  C   UNL     1      29.412  25.281  23.600  0.00  0.00    +0.000 A 
ATOM      6  C   UNL     1      29.448  25.518  22.224  0.00  0.00    +0.000 A 
ATOM      7  C   UNL     1      28.429  25.044  21.444  0.00  0.00    +0.000 A 
ATOM      8  C   UNL     1      27.369  24.342  21.961  0.00  0.00    +0.000 A 
ATOM      9  F   UNL     1      26.348  23.876  21.166  0.00  0.00    +0.000 F 
ATOM     10  C   UNL     1      27.327  24.100  23.334  0.00  0.00    +0.000 A 
ATOM     11  C   UNL     1      28.358  24.576  24.143  0.00  0.00    +0.000 A 
ENDBRANCH   1  11
BRANCH   2  12
ATOM     12  C   UNL     1      28.851  23.028  27.624  0.00  0.00    +0.000 A 
ATOM     13  C   UNL     1      30.059  22.877  28.324  0.00  0.00    +0.000 A 
ATOM     14  C   UNL     1      30.111  22.753  29.690  0.00  0.00    +0.000 A 
ATOM     15  C   UNL     1      28.912  22.780  30.404  0.00  0.00    +0.000 A 
ATOM     16  C   UNL     1      27.680  22.925  29.767  0.00  0.00    +0.000 A 
ATOM     17  C   UNL     1      27.693  23.045  28.399  0.00  0.00    +0.000 A 
ATOM     18  C   UNL     1      26.391  23.191  27.692  0.00  0.00    +0.000 C 
BRANCH  16  19
ATOM     19  N   UNL     1      26.513  22.924  30.575  0.00  0.00    +0.000 N 
ATOM     20  O   UNL     1      25.987  23.947  31.045  0.00  0.00    +0.000 OA
ATOM     21  O   UNL     1      25.864  21.731  30.892  0.00  0.00    +0.000 OA
ENDBRANCH  16  19
ENDBRANCH   2  12
TORSDOF 3
ENDMDL
