MODEL 1
REMARK VINA RESULT:      -7.7      0.000      0.000
REMARK  Name = 
REMARK  2 active torsions:
REMARK  status: ('A' for Active; 'I' for Inactive)
REMARK    1  A    between atoms: C_4  and  C_5
REMARK    2  A    between atoms: C_8  and  C_9
REMARK                            x       y       z     vdW  Elec       q    Type
REMARK                         _______ _______ _______ _____ _____    ______ ____
ROOT
ATOM      1  C   UNL     1      16.772  10.666  36.179  0.00  0.00    +0.000 A 
ATOM      2  C   UNL     1      15.798  11.619  36.259  0.00  0.00    +0.000 A 
ATOM      3  C   UNL     1      15.172  12.149  35.149  0.00  0.00    +0.000 A 
ATOM      4  C   UNL     1      15.526  11.717  33.889  0.00  0.00    +0.000 A 
ATOM      5  C   UNL     1      16.512  10.753  33.814  0.00  0.00    +0.000 A 
ATOM      6  C   UNL     1      17.134  10.225  34.920  0.00  0.00    +0.000 A 
ENDROOT
BRANCH   1  10
ATOM      7  N   UNL     1      17.104   9.543  40.957  0.00  0.00    +0.000 NA
ATOM      8  C   UNL     1      17.568   9.597  39.587  0.00  0.00    +0.000 A 
ATOM      9  N   UNL     1      16.905  10.120  38.572  0.00  0.00    +0.000 NA
ATOM     10  C   UNL     1      17.436  10.104  37.388  0.00  0.00    +0.000 A 
ATOM     11  C   UNL     1      18.681   9.532  37.267  0.00  0.00    +0.000 A 
ATOM     12  S   UNL     1      19.012   9.051  38.870  0.00  0.00    +0.000 S 
ENDBRANCH   1  10
BRANCH   4  13
ATOM     13  C   UNL     1      14.941  12.198  32.643  0.00  0.00    +0.000 C 
ATOM     14  C   UNL     1      14.557  11.169  31.660  0.00  0.00    +0.000 C 
ATOM     15  C   UNL     1      14.606  11.799  30.266  0.00  0.00    +0.000 C 
ATOM     16  C   UNL     1      14.886  13.294  30.366  0.00  0.00    +0.000 C 
ATOM     17  C   UNL     1      13.898  13.957  31.329  0.00  0.00    +0.000 C 
ATOM     18  C   UNL     1      14.068  13.382  32.740  0.00  0.00    +0.000 C 
ENDBRANCH   4  13
TORSDOF 2
ENDMDL
MODEL 2
REMARK VINA RESULT:      -7.1      3.529      7.348
REMARK  Name = 
REMARK  2 active torsions:
REMARK  status: ('A' for Active; 'I' for Inactive)
REMARK    1  A    between atoms: C_4  and  C_5
REMARK    2  A    between atoms: C_8  and  C_9
REMARK                            x       y       z     vdW  Elec       q    Type
REMARK                         _______ _______ _______ _____ _____    ______ ____
ROOT
ATOM      1  C   UNL     1      16.122  11.020  34.525  0.00  0.00    +0.000 A 
ATOM      2  C   UNL     1      15.739  11.607  35.696  0.00  0.00    +0.000 A 
ATOM      3  C   UNL     1      16.252  11.241  36.923  0.00  0.00    +0.000 A 
ATOM      4  C   UNL     1      17.195  10.239  37.002  0.00  0.00    +0.000 A 
ATOM      5  C   UNL     1      17.579   9.648  35.814  0.00  0.00    +0.000 A 
ATOM      6  C   UNL     1      17.067  10.014  34.592  0.00  0.00    +0.000 A 
ENDROOT
BRANCH   1  10
ATOM      7  N   UNL     1      13.614  13.957  31.477  0.00  0.00    +0.000 NA
ATOM      8  C   UNL     1      14.401  12.793  31.824  0.00  0.00    +0.000 A 
ATOM      9  N   UNL     1      14.861  12.510  33.029  0.00  0.00    +0.000 NA
ATOM     10  C   UNL     1      15.557  11.429  33.208  0.00  0.00    +0.000 A 
ATOM     11  C   UNL     1      15.772  10.632  32.107  0.00  0.00    +0.000 A 
ATOM     12  S   UNL     1      14.957  11.491  30.879  0.00  0.00    +0.000 S 
ENDBRANCH   1  10
BRANCH   4  13
ATOM     13  C   UNL     1      17.812   9.763  38.235  0.00  0.00    +0.000 C 
ATOM     14  C   UNL     1      19.240  10.078  38.417  0.00  0.00    +0.000 C 
ATOM     15  C   UNL     1      19.850   9.015  39.333  0.00  0.00    +0.000 C 
ATOM     16  C   UNL     1      18.767   8.083  39.863  0.00  0.00    +0.000 C 
ATOM     17  C   UNL     1      17.633   8.892  40.497  0.00  0.00    +0.000 C 
ATOM     18  C   UNL     1      16.968   9.785  39.443  0.00  0.00    +0.000 C 
ENDBRANCH   4  13
TORSDOF 2
ENDMDL
MODEL 3
REMARK VINA RESULT:      -6.9     27.901     30.159
REMARK  Name = 
REMARK  2 active torsions:
REMARK  status: ('A' for Active; 'I' for Inactive)
REMARK    1  A    between atoms: C_4  and  C_5
REMARK    2  A    between atoms: C_8  and  C_9
REMARK                            x       y       z     vdW  Elec       q    Type
REMARK                         _______ _______ _______ _____ _____    ______ ____
ROOT
ATOM      1  C   UNL     1      32.525  20.899  11.162  0.00  0.00    +0.000 A 
ATOM      2  C   UNL     1      32.183  21.077  12.471  0.00  0.00    +0.000 A 
ATOM      3  C   UNL     1      30.977  21.619  12.866  0.00  0.00    +0.000 A 
ATOM      4  C   UNL     1      30.056  22.007  11.917  0.00  0.00    +0.000 A 
ATOM      5  C   UNL     1      30.407  21.825  10.594  0.00  0.00    +0.000 A 
ATOM      6  C   UNL     1      31.609  21.285  10.202  0.00  0.00    +0.000 A 
ENDROOT
BRANCH   1  10
ATOM      7  N   UNL     1      36.850  18.688  11.947  0.00  0.00    +0.000 NA
ATOM      8  C   UNL     1      35.815  19.295  11.137  0.00  0.00    +0.000 A 
ATOM      9  N   UNL     1      34.680  19.793  11.590  0.00  0.00    +0.000 NA
ATOM     10  C   UNL     1      33.832  20.312  10.754  0.00  0.00    +0.000 A 
ATOM     11  C   UNL     1      34.182  20.307   9.424  0.00  0.00    +0.000 A 
ATOM     12  S   UNL     1      35.713  19.555   9.458  0.00  0.00    +0.000 S 
ENDBRANCH   1  10
BRANCH   4  13
ATOM     13  C   UNL     1      28.751  22.591  12.206  0.00  0.00    +0.000 C 
ATOM     14  C   UNL     1      28.755  23.913  12.858  0.00  0.00    +0.000 C 
ATOM     15  C   UNL     1      27.453  24.058  13.649  0.00  0.00    +0.000 C 
ATOM     16  C   UNL     1      26.533  22.872  13.386  0.00  0.00    +0.000 C 
ATOM     17  C   UNL     1      26.343  22.671  11.880  0.00  0.00    +0.000 C 
ATOM     18  C   UNL     1      27.686  22.343  11.217  0.00  0.00    +0.000 C 
ENDBRANCH   4  13
TORSDOF 2
ENDMDL
MODEL 4
REMARK VINA RESULT:      -6.5     19.054     20.558
REMARK  Name = 
REMARK  2 active torsions:
REMARK  status: ('A' for Active; 'I' for Inactive)
REMARK    1  A    between atoms: C_4  and  C_5
REMARK    2  A    between atoms: C_8  and  C_9
REMARK                            x       y       z     vdW  Elec       q    Type
REMARK                         _______ _______ _______ _____ _____    ______ ____
ROOT
ATOM      1  C   UNL     1      33.486   0.969  34.873  0.00  0.00    +0.000 A 
ATOM      2  C   UNL     1      33.472   1.830  33.813  0.00  0.00    +0.000 A 
ATOM      3  C   UNL     1      33.826   3.159  33.920  0.00  0.00    +0.000 A 
ATOM      4  C   UNL     1      34.214   3.670  35.139  0.00  0.00    +0.000 A 
ATOM      5  C   UNL     1      34.226   2.796  36.208  0.00  0.00    +0.000 A 
ATOM      6  C   UNL     1      33.874   1.471  36.101  0.00  0.00    +0.000 A 
ENDROOT
BRANCH   1  10
ATOM      7  N   UNL     1      33.621  -3.502  32.825  0.00  0.00    +0.000 NA
ATOM      8  C   UNL     1      33.179  -2.511  33.783  0.00  0.00    +0.000 A 
ATOM      9  N   UNL     1      33.577  -1.253  33.825  0.00  0.00    +0.000 NA
ATOM     10  C   UNL     1      33.101  -0.464  34.739  0.00  0.00    +0.000 A 
ATOM     11  C   UNL     1      32.193  -1.003  35.621  0.00  0.00    +0.000 A 
ATOM     12  S   UNL     1      32.081  -2.616  35.079  0.00  0.00    +0.000 S 
ENDBRANCH   1  10
BRANCH   4  13
ATOM     13  C   UNL     1      34.610   5.053  35.381  0.00  0.00    +0.000 C 
ATOM     14  C   UNL     1      36.017   5.391  35.099  0.00  0.00    +0.000 C 
ATOM     15  C   UNL     1      36.407   6.580  35.979  0.00  0.00    +0.000 C 
ATOM     16  C   UNL     1      35.192   7.107  36.733  0.00  0.00    +0.000 C 
ATOM     17  C   UNL     1      34.043   7.386  35.761  0.00  0.00    +0.000 C 
ATOM     18  C   UNL     1      33.605   6.088  35.074  0.00  0.00    +0.000 C 
ENDBRANCH   4  13
TORSDOF 2
ENDMDL
MODEL 5
REMARK VINA RESULT:      -6.4     19.963     21.640
REMARK  Name = 
REMARK  2 active torsions:
REMARK  status: ('A' for Active; 'I' for Inactive)
REMARK    1  A    between atoms: C_4  and  C_5
REMARK    2  A    between atoms: C_8  and  C_9
REMARK                            x       y       z     vdW  Elec       q    Type
REMARK                         _______ _______ _______ _____ _____    ______ ____
ROOT
ATOM      1  C   UNL     1      29.594  23.175  25.388  0.00  0.00    +0.000 A 
ATOM      2  C   UNL     1      28.869  22.676  26.432  0.00  0.00    +0.000 A 
ATOM      3  C   UNL     1      29.426  22.375  27.657  0.00  0.00    +0.000 A 
ATOM      4  C   UNL     1      30.774  22.574  27.867  0.00  0.00    +0.000 A 
ATOM      5  C   UNL     1      31.502  23.078  26.807  0.00  0.00    +0.000 A 
ATOM      6  C   UNL     1      30.947  23.379  25.587  0.00  0.00    +0.000 A 
ENDROOT
BRANCH   1  10
ATOM      7  N   UNL     1      29.639  24.607  20.681  0.00  0.00    +0.000 NA
ATOM      8  C   UNL     1      29.019  24.156  21.909  0.00  0.00    +0.000 A 
ATOM      9  N   UNL     1      29.652  23.895  23.037  0.00  0.00    +0.000 NA
ATOM     10  C   UNL     1      28.976  23.496  24.071  0.00  0.00    +0.000 A 
ATOM     11  C   UNL     1      27.614  23.370  23.918  0.00  0.00    +0.000 A 
ATOM     12  S   UNL     1      27.392  23.835  22.291  0.00  0.00    +0.000 S 
ENDBRANCH   1  10
BRANCH   4  13
ATOM     13  C   UNL     1      31.479  22.295  29.112  0.00  0.00    +0.000 C 
ATOM     14  C   UNL     1      32.927  22.573  29.121  0.00  0.00    +0.000 C 
ATOM     15  C   UNL     1      33.581  21.661  30.161  0.00  0.00    +0.000 C 
ATOM     16  C   UNL     1      32.520  20.887  30.935  0.00  0.00    +0.000 C 
ATOM     17  C   UNL     1      31.470  21.847  31.501  0.00  0.00    +0.000 C 
ATOM     18  C   UNL     1      30.744  22.568  30.360  0.00  0.00    +0.000 C 
ENDBRANCH   4  13
TORSDOF 2
ENDMDL
MODEL 6
REMARK VINA RESULT:      -6.4     18.818     21.159
REMARK  Name = 
REMARK  2 active torsions:
REMARK  status: ('A' for Active; 'I' for Inactive)
REMARK    1  A    between atoms: C_4  and  C_5
REMARK    2  A    between atoms: C_8  and  C_9
REMARK                            x       y       z     vdW  Elec       q    Type
REMARK                         _______ _______ _______ _____ _____    ______ ____
ROOT
ATOM      1  C   UNL     1      33.806  -0.967  34.256  0.00  0.00    +0.000 A 
ATOM      2  C   UNL     1      33.748  -0.348  35.472  0.00  0.00    +0.000 A 
ATOM      3  C   UNL     1      33.698   1.023  35.615  0.00  0.00    +0.000 A 
ATOM      4  C   UNL     1      33.707   1.831  34.498  0.00  0.00    +0.000 A 
ATOM      5  C   UNL     1      33.766   1.200  33.271  0.00  0.00    +0.000 A 
ATOM      6  C   UNL     1      33.815  -0.167  33.129  0.00  0.00    +0.000 A 
ENDROOT
BRANCH   1  10
ATOM      7  N   UNL     1      33.310  -5.236  31.861  0.00  0.00    +0.000 NA
ATOM      8  C   UNL     1      33.624  -4.400  33.001  0.00  0.00    +0.000 A 
ATOM      9  N   UNL     1      33.547  -3.083  33.030  0.00  0.00    +0.000 NA
ATOM     10  C   UNL     1      33.859  -2.450  34.120  0.00  0.00    +0.000 A 
ATOM     11  C   UNL     1      34.256  -3.211  35.194  0.00  0.00    +0.000 A 
ATOM     12  S   UNL     1      34.157  -4.795  34.568  0.00  0.00    +0.000 S 
ENDBRANCH   1  10
BRANCH   4  13
ATOM     13  C   UNL     1      33.659   3.288  34.517  0.00  0.00    +0.000 C 
ATOM     14  C   UNL     1      34.852   3.976  35.045  0.00  0.00    +0.000 C 
ATOM     15  C   UNL     1      34.414   5.334  35.596  0.00  0.00    +0.000 C 
ATOM     16  C   UNL     1      32.942   5.586  35.290  0.00  0.00    +0.000 C 
ATOM     17  C   UNL     1      32.670   5.388  33.796  0.00  0.00    +0.000 C 
ATOM     18  C   UNL     1      32.962   3.938  33.393  0.00  0.00    +0.000 C 
ENDBRANCH   4  13
TORSDOF 2
ENDMDL
MODEL 7
REMARK VINA RESULT:      -6.3      3.727      7.288
REMARK  Name = 
REMARK  2 active torsions:
REMARK  status: ('A' for Active; 'I' for Inactive)
REMARK    1  A    between atoms: C_4  and  C_5
REMARK    2  A    between atoms: C_8  and  C_9
REMARK                            x       y       z     vdW  Elec       q    Type
REMARK                         _______ _______ _______ _____ _____    ______ ____
ROOT
ATOM      1  C   UNL     1      17.802  11.009  37.300  0.00  0.00    +0.000 A 
ATOM      2  C   UNL     1      18.312   9.938  36.625  0.00  0.00    +0.000 A 
ATOM      3  C   UNL     1      19.656   9.628  36.613  0.00  0.00    +0.000 A 
ATOM      4  C   UNL     1      20.549  10.418  37.304  0.00  0.00    +0.000 A 
ATOM      5  C   UNL     1      20.028  11.500  37.985  0.00  0.00    +0.000 A 
ATOM      6  C   UNL     1      18.688  11.809  37.997  0.00  0.00    +0.000 A 
ENDROOT
BRANCH   1  10
ATOM      7  N   UNL     1      13.192  10.750  38.998  0.00  0.00    +0.000 NA
ATOM      8  C   UNL     1      14.235  11.196  38.099  0.00  0.00    +0.000 A 
ATOM      9  N   UNL     1      15.509  10.857  38.174  0.00  0.00    +0.000 NA
ATOM     10  C   UNL     1      16.347  11.329  37.302  0.00  0.00    +0.000 A 
ATOM     11  C   UNL     1      15.840  12.168  36.337  0.00  0.00    +0.000 A 
ATOM     12  S   UNL     1      14.185  12.226  36.745  0.00  0.00    +0.000 S 
ENDBRANCH   1  10
BRANCH   4  13
ATOM     13  C   UNL     1      21.989  10.196  37.369  0.00  0.00    +0.000 C 
ATOM     14  C   UNL     1      22.706  10.174  36.081  0.00  0.00    +0.000 C 
ATOM     15  C   UNL     1      23.964   9.320  36.250  0.00  0.00    +0.000 C 
ATOM     16  C   UNL     1      24.135   8.904  37.707  0.00  0.00    +0.000 C 
ATOM     17  C   UNL     1      24.072  10.131  38.620  0.00  0.00    +0.000 C 
ATOM     18  C   UNL     1      22.697  10.801  38.511  0.00  0.00    +0.000 C 
ENDBRANCH   4  13
TORSDOF 2
ENDMDL
MODEL 8
REMARK VINA RESULT:      -6.3     28.438     30.694
REMARK  Name = 
REMARK  2 active torsions:
REMARK  status: ('A' for Active; 'I' for Inactive)
REMARK    1  A    between atoms: C_4  and  C_5
REMARK    2  A    between atoms: C_8  and  C_9
REMARK                            x       y       z     vdW  Elec       q    Type
REMARK                         _______ _______ _______ _____ _____    ______ ____
ROOT
ATOM      1  C   UNL     1      30.756  21.934  12.043  0.00  0.00    +0.000 A 
ATOM      2  C   UNL     1      31.183  20.790  12.652  0.00  0.00    +0.000 A 
ATOM      3  C   UNL     1      32.454  20.279  12.486  0.00  0.00    +0.000 A 
ATOM      4  C   UNL     1      33.355  20.933  11.673  0.00  0.00    +0.000 A 
ATOM      5  C   UNL     1      32.918  22.090  11.060  0.00  0.00    +0.000 A 
ATOM      6  C   UNL     1      31.651  22.598  11.226  0.00  0.00    +0.000 A 
ENDROOT
BRANCH   1  10
ATOM      7  N   UNL     1      26.005  22.510  10.902  0.00  0.00    +0.000 NA
ATOM      8  C   UNL     1      27.199  22.722  11.693  0.00  0.00    +0.000 A 
ATOM      9  N   UNL     1      28.386  22.201  11.444  0.00  0.00    +0.000 NA
ATOM     10  C   UNL     1      29.379  22.471  12.235  0.00  0.00    +0.000 A 
ATOM     11  C   UNL     1      29.123  23.301  13.302  0.00  0.00    +0.000 A 
ATOM     12  S   UNL     1      27.463  23.642  13.100  0.00  0.00    +0.000 S 
ENDBRANCH   1  10
BRANCH   4  13
ATOM     13  C   UNL     1      34.723  20.496  11.417  0.00  0.00    +0.000 C 
ATOM     14  C   UNL     1      35.353  19.670  12.462  0.00  0.00    +0.000 C 
ATOM     15  C   UNL     1      36.869  19.862  12.372  0.00  0.00    +0.000 C 
ATOM     16  C   UNL     1      37.228  20.712  11.159  0.00  0.00    +0.000 C 
ATOM     17  C   UNL     1      36.584  20.134   9.896  0.00  0.00    +0.000 C 
ATOM     18  C   UNL     1      35.057  20.166  10.019  0.00  0.00    +0.000 C 
ENDBRANCH   4  13
TORSDOF 2
ENDMDL
MODEL 9
REMARK VINA RESULT:      -6.1     20.491     21.849
REMARK  Name = 
REMARK  2 active torsions:
REMARK  status: ('A' for Active; 'I' for Inactive)
REMARK    1  A    between atoms: C_4  and  C_5
REMARK    2  A    between atoms: C_8  and  C_9
REMARK                            x       y       z     vdW  Elec       q    Type
REMARK                         _______ _______ _______ _____ _____    ______ ____
ROOT
ATOM      1  C   UNL     1      23.106   3.058  17.221  0.00  0.00    +0.000 A 
ATOM      2  C   UNL     1      23.609   3.232  18.478  0.00  0.00    +0.000 A 
ATOM      3  C   UNL     1      24.792   3.895  18.729  0.00  0.00    +0.000 A 
ATOM      4  C   UNL     1      25.523   4.416  17.683  0.00  0.00    +0.000 A 
ATOM      5  C   UNL     1      25.010   4.237  16.413  0.00  0.00    +0.000 A 
ATOM      6  C   UNL     1      23.830   3.577  16.164  0.00  0.00    +0.000 A 
ENDROOT
BRANCH   1  10
ATOM      7  N   UNL     1      20.191  -0.159  14.907  0.00  0.00    +0.000 NA
ATOM      8  C   UNL     1      20.503   0.855  15.891  0.00  0.00    +0.000 A 
ATOM      9  N   UNL     1      21.676   1.441  16.043  0.00  0.00    +0.000 NA
ATOM     10  C   UNL     1      21.826   2.340  16.968  0.00  0.00    +0.000 A 
ATOM     11  C   UNL     1      20.727   2.628  17.744  0.00  0.00    +0.000 A 
ATOM     12  S   UNL     1      19.545   1.585  17.093  0.00  0.00    +0.000 S 
ENDBRANCH   1  10
BRANCH   4  13
ATOM     13  C   UNL     1      26.785   5.135  17.817  0.00  0.00    +0.000 C 
ATOM     14  C   UNL     1      27.104   5.652  19.161  0.00  0.00    +0.000 C 
ATOM     15  C   UNL     1      28.026   6.862  18.999  0.00  0.00    +0.000 C 
ATOM     16  C   UNL     1      28.422   7.040  17.538  0.00  0.00    +0.000 C 
ATOM     17  C   UNL     1      28.986   5.731  16.978  0.00  0.00    +0.000 C 
ATOM     18  C   UNL     1      27.915   4.636  17.013  0.00  0.00    +0.000 C 
ENDBRANCH   4  13
TORSDOF 2
ENDMDL
MODEL 10
REMARK VINA RESULT:      -6.1     21.985     24.233
REMARK  Name = 
REMARK  2 active torsions:
REMARK  status: ('A' for Active; 'I' for Inactive)
REMARK    1  A    between atoms: C_4  and  C_5
REMARK    2  A    between atoms: C_8  and  C_9
REMARK                            x       y       z     vdW  Elec       q    Type
REMARK                         _______ _______ _______ _____ _____    ______ ____
ROOT
ATOM      1  C   UNL     1      29.422  26.113  21.403  0.00  0.00    +0.000 A 
ATOM      2  C   UNL     1      29.560  26.618  22.663  0.00  0.00    +0.000 A 
ATOM      3  C   UNL     1      29.510  25.834  23.797  0.00  0.00    +0.000 A 
ATOM      4  C   UNL     1      29.313  24.475  23.683  0.00  0.00    +0.000 A 
ATOM      5  C   UNL     1      29.173  23.969  22.406  0.00  0.00    +0.000 A 
ATOM      6  C   UNL     1      29.224  24.750  21.277  0.00  0.00    +0.000 A 
ENDROOT
BRANCH   1  10
ATOM      7  N   UNL     1      31.004  27.390  16.922  0.00  0.00    +0.000 NA
ATOM      8  C   UNL     1      30.220  27.543  18.129  0.00  0.00    +0.000 A 
ATOM      9  N   UNL     1      30.234  26.722  19.163  0.00  0.00    +0.000 NA
ATOM     10  C   UNL     1      29.479  26.975  20.189  0.00  0.00    +0.000 A 
ATOM     11  C   UNL     1      28.699  28.105  20.128  0.00  0.00    +0.000 A 
ATOM     12  S   UNL     1      29.100  28.737  18.595  0.00  0.00    +0.000 S 
ENDBRANCH   1  10
BRANCH   4  13
ATOM     13  C   UNL     1      29.240  23.542  24.802  0.00  0.00    +0.000 C 
ATOM     14  C   UNL     1      27.915  22.959  25.084  0.00  0.00    +0.000 C 
ATOM     15  C   UNL     1      27.866  22.585  26.567  0.00  0.00    +0.000 C 
ATOM     16  C   UNL     1      29.228  22.796  27.217  0.00  0.00    +0.000 C 
ATOM     17  C   UNL     1      30.316  22.076  26.416  0.00  0.00    +0.000 C 
ATOM     18  C   UNL     1      30.407  22.663  25.002  0.00  0.00    +0.000 C 
ENDBRANCH   4  13
TORSDOF 2
ENDMDL
