MODEL 1
REMARK VINA RESULT:      -6.6      0.000      0.000
REMARK  Name = 
REMARK  3 active torsions:
REMARK  status: ('A' for Active; 'I' for Inactive)
REMARK    1  A    between atoms: C_2  and  C_12
REMARK    2  A    between atoms: N_3  and  C_4
REMARK    3  A    between atoms: C_16  and  N_17
REMARK                            x       y       z     vdW  Elec       q    Type
REMARK                         _______ _______ _______ _____ _____    ______ ____
ROOT
ATOM      1  O   UNL     1      21.641  -5.572  24.025  0.00  0.00    +0.000 OA
ATOM      2  C   UNL     1      21.488  -6.501  24.843  0.00  0.00    +0.000 C 
ATOM      3  N   UNL     1      22.445  -7.514  24.923  0.00  0.00    +0.000 NA
ENDROOT
BRANCH   3   4
ATOM      4  C   UNL     1      23.639  -7.696  24.203  0.00  0.00    +0.000 C 
ATOM      5  C   UNL     1      24.722  -6.698  24.324  0.00  0.00    +0.000 C 
ATOM      6  C   UNL     1      25.736  -6.969  23.201  0.00  0.00    +0.000 C 
ATOM      7  C   UNL     1      26.134  -8.441  23.159  0.00  0.00    +0.000 C 
ATOM      8  C   UNL     1      25.609  -9.121  21.899  0.00  0.00    +0.000 C 
ATOM      9  C   UNL     1      24.105  -9.330  21.978  0.00  0.00    +0.000 C 
ATOM     10  C   UNL     1      23.730  -9.978  23.309  0.00  0.00    +0.000 C 
ATOM     11  C   UNL     1      24.233  -9.093  24.404  0.00  0.00    +0.000 C 
ENDBRANCH   3   4
BRANCH   2  12
ATOM     12  C   UNL     1      20.274  -6.475  25.693  0.00  0.00    +0.000 A 
ATOM     13  C   UNL     1      19.709  -5.244  25.943  0.00  0.00    +0.000 A 
ATOM     14  C   UNL     1      18.610  -5.149  26.744  0.00  0.00    +0.000 A 
ATOM     15  C   UNL     1      18.073  -6.281  27.299  0.00  0.00    +0.000 A 
ATOM     16  C   UNL     1      18.619  -7.557  27.070  0.00  0.00    +0.000 A 
ATOM     17  C   UNL     1      19.720  -7.590  26.257  0.00  0.00    +0.000 A 
BRANCH  16  18
ATOM     18  N   UNL     1      18.028  -8.707  27.679  0.00  0.00    +0.000 N 
ATOM     19  O   UNL     1      18.478  -9.121  28.743  0.00  0.00    +0.000 OA
ATOM     20  O   UNL     1      16.984  -9.360  27.109  0.00  0.00    +0.000 OA
ENDBRANCH  16  18
ENDBRANCH   2  12
TORSDOF 3
ENDMDL
MODEL 2
REMARK VINA RESULT:      -6.5     13.568     15.454
REMARK  Name = 
REMARK  3 active torsions:
REMARK  status: ('A' for Active; 'I' for Inactive)
REMARK    1  A    between atoms: C_2  and  C_12
REMARK    2  A    between atoms: N_3  and  C_4
REMARK    3  A    between atoms: C_16  and  N_17
REMARK                            x       y       z     vdW  Elec       q    Type
REMARK                         _______ _______ _______ _____ _____    ______ ____
ROOT
ATOM      1  O   UNL     1      33.360  -5.143  34.099  0.00  0.00    +0.000 OA
ATOM      2  C   UNL     1      33.366  -4.160  33.332  0.00  0.00    +0.000 C 
ATOM      3  N   UNL     1      33.598  -4.350  31.968  0.00  0.00    +0.000 NA
ENDROOT
BRANCH   3   4
ATOM      4  C   UNL     1      33.841  -5.529  31.243  0.00  0.00    +0.000 C 
ATOM      5  C   UNL     1      33.164  -5.739  29.946  0.00  0.00    +0.000 C 
ATOM      6  C   UNL     1      33.349  -7.215  29.555  0.00  0.00    +0.000 C 
ATOM      7  C   UNL     1      34.810  -7.636  29.666  0.00  0.00    +0.000 C 
ATOM      8  C   UNL     1      35.014  -8.635  30.800  0.00  0.00    +0.000 C 
ATOM      9  C   UNL     1      34.909  -7.952  32.155  0.00  0.00    +0.000 C 
ATOM     10  C   UNL     1      35.780  -6.699  32.185  0.00  0.00    +0.000 C 
ATOM     11  C   UNL     1      35.337  -5.808  31.069  0.00  0.00    +0.000 C 
ENDBRANCH   3   4
BRANCH   2  12
ATOM     12  C   UNL     1      33.128  -2.824  33.927  0.00  0.00    +0.000 A 
ATOM     13  C   UNL     1      32.383  -2.775  35.085  0.00  0.00    +0.000 A 
ATOM     14  C   UNL     1      32.101  -1.574  35.663  0.00  0.00    +0.000 A 
ATOM     15  C   UNL     1      32.560  -0.418  35.089  0.00  0.00    +0.000 A 
ATOM     16  C   UNL     1      33.324  -0.422  33.908  0.00  0.00    +0.000 A 
ATOM     17  C   UNL     1      33.576  -1.657  33.374  0.00  0.00    +0.000 A 
BRANCH  16  18
ATOM     18  N   UNL     1      33.773   0.812  33.342  0.00  0.00    +0.000 N 
ATOM     19  O   UNL     1      34.382   0.796  32.277  0.00  0.00    +0.000 OA
ATOM     20  O   UNL     1      33.549   2.002  33.954  0.00  0.00    +0.000 OA
ENDBRANCH  16  18
ENDBRANCH   2  12
TORSDOF 3
ENDMDL
MODEL 3
REMARK VINA RESULT:      -6.4     21.839     23.190
REMARK  Name = 
REMARK  3 active torsions:
REMARK  status: ('A' for Active; 'I' for Inactive)
REMARK    1  A    between atoms: C_2  and  C_12
REMARK    2  A    between atoms: N_3  and  C_4
REMARK    3  A    between atoms: C_16  and  N_17
REMARK                            x       y       z     vdW  Elec       q    Type
REMARK                         _______ _______ _______ _____ _____    ______ ____
ROOT
ATOM      1  O   UNL     1      18.301   9.715  37.755  0.00  0.00    +0.000 OA
ATOM      2  C   UNL     1      17.179  10.160  38.068  0.00  0.00    +0.000 C 
ATOM      3  N   UNL     1      16.694   9.960  39.362  0.00  0.00    +0.000 NA
ENDROOT
BRANCH   3   4
ATOM      4  C   UNL     1      17.277   9.306  40.460  0.00  0.00    +0.000 C 
ATOM      5  C   UNL     1      18.559   9.800  41.006  0.00  0.00    +0.000 C 
ATOM      6  C   UNL     1      19.111   8.722  41.954  0.00  0.00    +0.000 C 
ATOM      7  C   UNL     1      18.049   8.266  42.949  0.00  0.00    +0.000 C 
ATOM      8  C   UNL     1      17.625   6.825  42.684  0.00  0.00    +0.000 C 
ATOM      9  C   UNL     1      16.768   6.729  41.432  0.00  0.00    +0.000 C 
ATOM     10  C   UNL     1      15.653   7.771  41.472  0.00  0.00    +0.000 C 
ATOM     11  C   UNL     1      16.291   9.116  41.617  0.00  0.00    +0.000 C 
ENDBRANCH   3   4
BRANCH   2  12
ATOM     12  C   UNL     1      16.412  10.882  37.026  0.00  0.00    +0.000 A 
ATOM     13  C   UNL     1      15.380  11.689  37.452  0.00  0.00    +0.000 A 
ATOM     14  C   UNL     1      14.615  12.354  36.541  0.00  0.00    +0.000 A 
ATOM     15  C   UNL     1      14.877  12.217  35.203  0.00  0.00    +0.000 A 
ATOM     16  C   UNL     1      15.921  11.404  34.725  0.00  0.00    +0.000 A 
ATOM     17  C   UNL     1      16.654  10.762  35.686  0.00  0.00    +0.000 A 
BRANCH  16  18
ATOM     18  N   UNL     1      16.149  11.286  33.319  0.00  0.00    +0.000 N 
ATOM     19  O   UNL     1      15.593  12.068  32.554  0.00  0.00    +0.000 OA
ATOM     20  O   UNL     1      16.959  10.327  32.804  0.00  0.00    +0.000 OA
ENDBRANCH  16  18
ENDBRANCH   2  12
TORSDOF 3
ENDMDL
MODEL 4
REMARK VINA RESULT:      -6.4     31.215     31.871
REMARK  Name = 
REMARK  3 active torsions:
REMARK  status: ('A' for Active; 'I' for Inactive)
REMARK    1  A    between atoms: C_2  and  C_12
REMARK    2  A    between atoms: N_3  and  C_4
REMARK    3  A    between atoms: C_16  and  N_17
REMARK                            x       y       z     vdW  Elec       q    Type
REMARK                         _______ _______ _______ _____ _____    ______ ____
ROOT
ATOM      1  O   UNL     1      28.214  22.184  27.966  0.00  0.00    +0.000 OA
ATOM      2  C   UNL     1      29.136  22.496  27.187  0.00  0.00    +0.000 C 
ATOM      3  N   UNL     1      30.446  22.574  27.665  0.00  0.00    +0.000 NA
ENDROOT
BRANCH   3   4
ATOM      4  C   UNL     1      30.958  22.346  28.954  0.00  0.00    +0.000 C 
ATOM      5  C   UNL     1      32.232  21.613  29.113  0.00  0.00    +0.000 C 
ATOM      6  C   UNL     1      32.368  21.229  30.596  0.00  0.00    +0.000 C 
ATOM      7  C   UNL     1      32.128  22.431  31.502  0.00  0.00    +0.000 C 
ATOM      8  C   UNL     1      30.838  22.273  32.301  0.00  0.00    +0.000 C 
ATOM      9  C   UNL     1      29.619  22.457  31.411  0.00  0.00    +0.000 C 
ATOM     10  C   UNL     1      29.756  23.732  30.582  0.00  0.00    +0.000 C 
ATOM     11  C   UNL     1      31.020  23.628  29.791  0.00  0.00    +0.000 C 
ENDBRANCH   3   4
BRANCH   2  12
ATOM     12  C   UNL     1      28.779  22.777  25.777  0.00  0.00    +0.000 A 
ATOM     13  C   UNL     1      29.817  22.955  24.889  0.00  0.00    +0.000 A 
ATOM     14  C   UNL     1      29.555  23.248  23.584  0.00  0.00    +0.000 A 
ATOM     15  C   UNL     1      28.257  23.366  23.161  0.00  0.00    +0.000 A 
ATOM     16  C   UNL     1      27.167  23.192  24.033  0.00  0.00    +0.000 A 
ATOM     17  C   UNL     1      27.492  22.899  25.330  0.00  0.00    +0.000 A 
BRANCH  16  18
ATOM     18  N   UNL     1      25.831  23.334  23.546  0.00  0.00    +0.000 N 
ATOM     19  O   UNL     1      25.022  23.989  24.196  0.00  0.00    +0.000 OA
ATOM     20  O   UNL     1      25.430  22.759  22.384  0.00  0.00    +0.000 OA
ENDBRANCH  16  18
ENDBRANCH   2  12
TORSDOF 3
ENDMDL
MODEL 5
REMARK VINA RESULT:      -6.2     33.647     35.243
REMARK  Name = 
REMARK  3 active torsions:
REMARK  status: ('A' for Active; 'I' for Inactive)
REMARK    1  A    between atoms: C_2  and  C_12
REMARK    2  A    between atoms: N_3  and  C_4
REMARK    3  A    between atoms: C_16  and  N_17
REMARK                            x       y       z     vdW  Elec       q    Type
REMARK                         _______ _______ _______ _____ _____    ______ ____
ROOT
ATOM      1  O   UNL     1      28.033  27.718  20.522  0.00  0.00    +0.000 OA
ATOM      2  C   UNL     1      28.849  26.775  20.483  0.00  0.00    +0.000 C 
ATOM      3  N   UNL     1      29.881  26.794  19.544  0.00  0.00    +0.000 NA
ENDROOT
BRANCH   3   4
ATOM      4  C   UNL     1      30.200  27.750  18.564  0.00  0.00    +0.000 C 
ATOM      5  C   UNL     1      31.007  28.932  18.933  0.00  0.00    +0.000 C 
ATOM      6  C   UNL     1      30.914  29.941  17.776  0.00  0.00    +0.000 C 
ATOM      7  C   UNL     1      31.210  29.276  16.437  0.00  0.00    +0.000 C 
ATOM      8  C   UNL     1      29.963  29.216  15.561  0.00  0.00    +0.000 C 
ATOM      9  C   UNL     1      28.981  28.177  16.079  0.00  0.00    +0.000 C 
ATOM     10  C   UNL     1      29.697  26.854  16.336  0.00  0.00    +0.000 C 
ATOM     11  C   UNL     1      30.804  27.115  17.307  0.00  0.00    +0.000 C 
ENDBRANCH   3   4
BRANCH   2  12
ATOM     12  C   UNL     1      28.665  25.667  21.451  0.00  0.00    +0.000 A 
ATOM     13  C   UNL     1      29.801  25.137  22.022  0.00  0.00    +0.000 A 
ATOM     14  C   UNL     1      29.701  24.095  22.894  0.00  0.00    +0.000 A 
ATOM     15  C   UNL     1      28.470  23.578  23.199  0.00  0.00    +0.000 A 
ATOM     16  C   UNL     1      27.285  24.089  22.640  0.00  0.00    +0.000 A 
ATOM     17  C   UNL     1      27.447  25.135  21.772  0.00  0.00    +0.000 A 
BRANCH  16  18
ATOM     18  N   UNL     1      26.024  23.510  22.983  0.00  0.00    +0.000 N 
ATOM     19  O   UNL     1      25.556  23.711  24.100  0.00  0.00    +0.000 OA
ATOM     20  O   UNL     1      25.330  22.738  22.109  0.00  0.00    +0.000 OA
ENDBRANCH  16  18
ENDBRANCH   2  12
TORSDOF 3
ENDMDL
MODEL 6
REMARK VINA RESULT:      -6.1     13.036     14.905
REMARK  Name = 
REMARK  3 active torsions:
REMARK  status: ('A' for Active; 'I' for Inactive)
REMARK    1  A    between atoms: C_2  and  C_12
REMARK    2  A    between atoms: N_3  and  C_4
REMARK    3  A    between atoms: C_16  and  N_17
REMARK                            x       y       z     vdW  Elec       q    Type
REMARK                         _______ _______ _______ _____ _____    ______ ____
ROOT
ATOM      1  O   UNL     1      25.793   3.505  18.516  0.00  0.00    +0.000 OA
ATOM      2  C   UNL     1      25.022   3.471  17.536  0.00  0.00    +0.000 C 
ATOM      3  N   UNL     1      25.309   4.237  16.405  0.00  0.00    +0.000 NA
ENDROOT
BRANCH   3   4
ATOM      4  C   UNL     1      26.385   5.102  16.143  0.00  0.00    +0.000 C 
ATOM      5  C   UNL     1      27.045   5.064  14.821  0.00  0.00    +0.000 C 
ATOM      6  C   UNL     1      28.362   5.851  14.932  0.00  0.00    +0.000 C 
ATOM      7  C   UNL     1      28.136   7.218  15.568  0.00  0.00    +0.000 C 
ATOM      8  C   UNL     1      28.782   7.299  16.947  0.00  0.00    +0.000 C 
ATOM      9  C   UNL     1      28.003   6.483  17.965  0.00  0.00    +0.000 C 
ATOM     10  C   UNL     1      26.516   6.821  17.888  0.00  0.00    +0.000 C 
ATOM     11  C   UNL     1      26.061   6.559  16.488  0.00  0.00    +0.000 C 
ENDBRANCH   3   4
BRANCH   2  12
ATOM     12  C   UNL     1      23.822   2.607  17.637  0.00  0.00    +0.000 A 
ATOM     13  C   UNL     1      24.008   1.252  17.475  0.00  0.00    +0.000 A 
ATOM     14  C   UNL     1      22.940   0.407  17.523  0.00  0.00    +0.000 A 
ATOM     15  C   UNL     1      21.683   0.911  17.731  0.00  0.00    +0.000 A 
ATOM     16  C   UNL     1      21.448   2.287  17.901  0.00  0.00    +0.000 A 
ATOM     17  C   UNL     1      22.558   3.086  17.844  0.00  0.00    +0.000 A 
BRANCH  16  18
ATOM     18  N   UNL     1      20.117   2.765  18.107  0.00  0.00    +0.000 N 
ATOM     19  O   UNL     1      19.171   2.102  17.694  0.00  0.00    +0.000 OA
ATOM     20  O   UNL     1      19.869   3.938  18.744  0.00  0.00    +0.000 OA
ENDBRANCH  16  18
ENDBRANCH   2  12
TORSDOF 3
ENDMDL
MODEL 7
REMARK VINA RESULT:      -6.1     31.495     32.854
REMARK  Name = 
REMARK  3 active torsions:
REMARK  status: ('A' for Active; 'I' for Inactive)
REMARK    1  A    between atoms: C_2  and  C_12
REMARK    2  A    between atoms: N_3  and  C_4
REMARK    3  A    between atoms: C_16  and  N_17
REMARK                            x       y       z     vdW  Elec       q    Type
REMARK                         _______ _______ _______ _____ _____    ______ ____
ROOT
ATOM      1  O   UNL     1      25.395  24.408  25.298  0.00  0.00    +0.000 OA
ATOM      2  C   UNL     1      26.281  24.831  26.066  0.00  0.00    +0.000 C 
ATOM      3  N   UNL     1      27.427  25.428  25.536  0.00  0.00    +0.000 NA
ENDROOT
BRANCH   3   4
ATOM      4  C   UNL     1      27.794  25.661  24.199  0.00  0.00    +0.000 C 
ATOM      5  C   UNL     1      27.206  26.806  23.472  0.00  0.00    +0.000 C 
ATOM      6  C   UNL     1      27.519  26.621  21.977  0.00  0.00    +0.000 C 
ATOM      7  C   UNL     1      28.998  26.328  21.755  0.00  0.00    +0.000 C 
ATOM      8  C   UNL     1      29.212  24.901  21.261  0.00  0.00    +0.000 C 
ATOM      9  C   UNL     1      28.983  23.896  22.379  0.00  0.00    +0.000 C 
ATOM     10  C   UNL     1      29.758  24.308  23.628  0.00  0.00    +0.000 C 
ATOM     11  C   UNL     1      29.313  25.684  24.008  0.00  0.00    +0.000 C 
ENDBRANCH   3   4
BRANCH   2  12
ATOM     12  C   UNL     1      26.064  24.666  27.523  0.00  0.00    +0.000 A 
ATOM     13  C   UNL     1      25.496  25.724  28.197  0.00  0.00    +0.000 A 
ATOM     14  C   UNL     1      25.300  25.648  29.544  0.00  0.00    +0.000 A 
ATOM     15  C   UNL     1      25.671  24.517  30.222  0.00  0.00    +0.000 A 
ATOM     16  C   UNL     1      26.254  23.413  29.573  0.00  0.00    +0.000 A 
ATOM     17  C   UNL     1      26.425  23.547  28.221  0.00  0.00    +0.000 A 
BRANCH  16  18
ATOM     18  N   UNL     1      26.632  22.258  30.326  0.00  0.00    +0.000 N 
ATOM     19  O   UNL     1      27.822  21.985  30.447  0.00  0.00    +0.000 OA
ATOM     20  O   UNL     1      25.709  21.450  30.906  0.00  0.00    +0.000 OA
ENDBRANCH  16  18
ENDBRANCH   2  12
TORSDOF 3
ENDMDL
MODEL 8
REMARK VINA RESULT:      -6.1     17.249     18.947
REMARK  Name = 
REMARK  3 active torsions:
REMARK  status: ('A' for Active; 'I' for Inactive)
REMARK    1  A    between atoms: C_2  and  C_12
REMARK    2  A    between atoms: N_3  and  C_4
REMARK    3  A    between atoms: C_16  and  N_17
REMARK                            x       y       z     vdW  Elec       q    Type
REMARK                         _______ _______ _______ _____ _____    ______ ____
ROOT
ATOM      1  O   UNL     1      33.631   1.044  33.273  0.00  0.00    +0.000 OA
ATOM      2  C   UNL     1      33.778   1.534  34.410  0.00  0.00    +0.000 C 
ATOM      3  N   UNL     1      34.109   0.703  35.482  0.00  0.00    +0.000 NA
ENDROOT
BRANCH   3   4
ATOM      4  C   UNL     1      34.326  -0.685  35.523  0.00  0.00    +0.000 C 
ATOM      5  C   UNL     1      35.518  -1.217  36.218  0.00  0.00    +0.000 C 
ATOM      6  C   UNL     1      35.671  -2.694  35.821  0.00  0.00    +0.000 C 
ATOM      7  C   UNL     1      34.358  -3.451  35.993  0.00  0.00    +0.000 C 
ATOM      8  C   UNL     1      33.781  -3.872  34.646  0.00  0.00    +0.000 C 
ATOM      9  C   UNL     1      33.216  -2.676  33.896  0.00  0.00    +0.000 C 
ATOM     10  C   UNL     1      32.298  -1.865  34.807  0.00  0.00    +0.000 C 
ATOM     11  C   UNL     1      33.092  -1.455  36.005  0.00  0.00    +0.000 C 
ENDBRANCH   3   4
BRANCH   2  12
ATOM     12  C   UNL     1      33.584   2.995  34.559  0.00  0.00    +0.000 A 
ATOM     13  C   UNL     1      32.990   3.660  33.508  0.00  0.00    +0.000 A 
ATOM     14  C   UNL     1      32.813   5.010  33.569  0.00  0.00    +0.000 A 
ATOM     15  C   UNL     1      33.229   5.701  34.676  0.00  0.00    +0.000 A 
ATOM     16  C   UNL     1      33.839   5.062  35.771  0.00  0.00    +0.000 A 
ATOM     17  C   UNL     1      33.989   3.707  35.653  0.00  0.00    +0.000 A 
BRANCH  16  18
ATOM     18  N   UNL     1      34.264   5.829  36.900  0.00  0.00    +0.000 N 
ATOM     19  O   UNL     1      34.871   5.271  37.810  0.00  0.00    +0.000 OA
ATOM     20  O   UNL     1      34.009   7.158  36.999  0.00  0.00    +0.000 OA
ENDBRANCH  16  18
ENDBRANCH   2  12
TORSDOF 3
ENDMDL
MODEL 9
REMARK VINA RESULT:      -5.9     21.090     22.505
REMARK  Name = 
REMARK  3 active torsions:
REMARK  status: ('A' for Active; 'I' for Inactive)
REMARK    1  A    between atoms: C_2  and  C_12
REMARK    2  A    between atoms: N_3  and  C_4
REMARK    3  A    between atoms: C_16  and  N_17
REMARK                            x       y       z     vdW  Elec       q    Type
REMARK                         _______ _______ _______ _____ _____    ______ ____
ROOT
ATOM      1  O   UNL     1      20.142   9.022  39.422  0.00  0.00    +0.000 OA
ATOM      2  C   UNL     1      19.646   9.824  38.607  0.00  0.00    +0.000 C 
ATOM      3  N   UNL     1      20.464  10.434  37.654  0.00  0.00    +0.000 NA
ENDROOT
BRANCH   3   4
ATOM      4  C   UNL     1      21.844  10.300  37.421  0.00  0.00    +0.000 C 
ATOM      5  C   UNL     1      22.323   9.914  36.077  0.00  0.00    +0.000 C 
ATOM      6  C   UNL     1      23.805   9.526  36.202  0.00  0.00    +0.000 C 
ATOM      7  C   UNL     1      24.594  10.593  36.952  0.00  0.00    +0.000 C 
ATOM      8  C   UNL     1      25.066  10.082  38.309  0.00  0.00    +0.000 C 
ATOM      9  C   UNL     1      23.907   9.977  39.287  0.00  0.00    +0.000 C 
ATOM     10  C   UNL     1      23.099  11.273  39.291  0.00  0.00    +0.000 C 
ATOM     11  C   UNL     1      22.635  11.525  37.892  0.00  0.00    +0.000 C 
ENDBRANCH   3   4
BRANCH   2  12
ATOM     12  C   UNL     1      18.192  10.092  38.705  0.00  0.00    +0.000 A 
ATOM     13  C   UNL     1      17.547   9.649  39.839  0.00  0.00    +0.000 A 
ATOM     14  C   UNL     1      16.203   9.835  39.975  0.00  0.00    +0.000 A 
ATOM     15  C   UNL     1      15.499  10.461  38.980  0.00  0.00    +0.000 A 
ATOM     16  C   UNL     1      16.118  10.929  37.806  0.00  0.00    +0.000 A 
ATOM     17  C   UNL     1      17.468  10.715  37.727  0.00  0.00    +0.000 A 
BRANCH  16  18
ATOM     18  N   UNL     1      15.339  11.569  36.793  0.00  0.00    +0.000 N 
ATOM     19  O   UNL     1      14.421  12.313  37.124  0.00  0.00    +0.000 OA
ATOM     20  O   UNL     1      15.583  11.372  35.473  0.00  0.00    +0.000 OA
ENDBRANCH  16  18
ENDBRANCH   2  12
TORSDOF 3
ENDMDL
MODEL 10
REMARK VINA RESULT:      -5.8     17.807     19.650
REMARK  Name = 
REMARK  3 active torsions:
REMARK  status: ('A' for Active; 'I' for Inactive)
REMARK    1  A    between atoms: C_2  and  C_12
REMARK    2  A    between atoms: N_3  and  C_4
REMARK    3  A    between atoms: C_16  and  N_17
REMARK                            x       y       z     vdW  Elec       q    Type
REMARK                         _______ _______ _______ _____ _____    ______ ____
ROOT
ATOM      1  O   UNL     1      33.474   2.046  33.254  0.00  0.00    +0.000 OA
ATOM      2  C   UNL     1      33.698   2.317  34.450  0.00  0.00    +0.000 C 
ATOM      3  N   UNL     1      33.686   1.297  35.403  0.00  0.00    +0.000 NA
ENDROOT
BRANCH   3   4
ATOM      4  C   UNL     1      33.454  -0.081  35.256  0.00  0.00    +0.000 C 
ATOM      5  C   UNL     1      32.141  -0.552  34.767  0.00  0.00    +0.000 C 
ATOM      6  C   UNL     1      32.062  -2.066  35.022  0.00  0.00    +0.000 C 
ATOM      7  C   UNL     1      33.305  -2.779  34.503  0.00  0.00    +0.000 C 
ATOM      8  C   UNL     1      34.143  -3.336  35.649  0.00  0.00    +0.000 C 
ATOM      9  C   UNL     1      34.859  -2.220  36.394  0.00  0.00    +0.000 C 
ATOM     10  C   UNL     1      35.577  -1.301  35.408  0.00  0.00    +0.000 C 
ATOM     11  C   UNL     1      34.557  -0.775  34.450  0.00  0.00    +0.000 C 
ENDBRANCH   3   4
BRANCH   2  12
ATOM     12  C   UNL     1      33.963   3.734  34.795  0.00  0.00    +0.000 A 
ATOM     13  C   UNL     1      33.071   4.673  34.325  0.00  0.00    +0.000 A 
ATOM     14  C   UNL     1      33.276   5.996  34.580  0.00  0.00    +0.000 A 
ATOM     15  C   UNL     1      34.373   6.387  35.302  0.00  0.00    +0.000 A 
ATOM     16  C   UNL     1      35.309   5.462  35.800  0.00  0.00    +0.000 A 
ATOM     17  C   UNL     1      35.049   4.149  35.514  0.00  0.00    +0.000 A 
BRANCH  16  18
ATOM     18  N   UNL     1      36.442   5.920  36.541  0.00  0.00    +0.000 N 
ATOM     19  O   UNL     1      36.344   6.941  37.216  0.00  0.00    +0.000 OA
ATOM     20  O   UNL     1      37.627   5.260  36.516  0.00  0.00    +0.000 OA
ENDBRANCH  16  18
ENDBRANCH   2  12
TORSDOF 3
ENDMDL
