MODEL 1
REMARK VINA RESULT:      -6.8      0.000      0.000
REMARK  Name = 
REMARK  3 active torsions:
REMARK  status: ('A' for Active; 'I' for Inactive)
REMARK    1  A    between atoms: C_2  and  C_5
REMARK    2  A    between atoms: C_8  and  C_9
REMARK    3  A    between atoms: C_9  and  N_10
REMARK                            x       y       z     vdW  Elec       q    Type
REMARK                         _______ _______ _______ _____ _____    ______ ____
ROOT
ATOM      1  C   UNL     1      25.325  24.711  24.748  0.00  0.00    +0.000 C 
ENDROOT
BRANCH   1   2
ATOM      2  N   UNL     1      26.194  24.416  23.661  0.00  0.00    +0.000 N 
ATOM      3  C   UNL     1      26.098  23.443  22.738  0.00  0.00    +0.000 A 
ATOM      4  N   UNL     1      25.002  22.512  22.708  0.00  0.00    +0.000 NA
ATOM      5  N   UNL     1      27.153  23.538  21.916  0.00  0.00    +0.000 NA
ATOM      6  C   UNL     1      27.892  24.559  22.328  0.00  0.00    +0.000 A 
ATOM      7  C   UNL     1      29.080  25.029  21.773  0.00  0.00    +0.000 A 
ATOM      8  C   UNL     1      29.667  26.120  22.387  0.00  0.00    +0.000 A 
ATOM      9  C   UNL     1      29.103  26.693  23.478  0.00  0.00    +0.000 A 
ATOM     10  C   UNL     1      27.929  26.215  24.011  0.00  0.00    +0.000 A 
ATOM     11  C   UNL     1      27.326  25.128  23.415  0.00  0.00    +0.000 A 
ENDBRANCH   1   2
BRANCH   1  15
ATOM     12  C   UNL     1      26.626  23.437  28.621  0.00  0.00    +0.000 A 
ATOM     13  C   UNL     1      27.215  22.896  27.510  0.00  0.00    +0.000 A 
ATOM     14  C   UNL     1      26.841  23.287  26.217  0.00  0.00    +0.000 A 
ATOM     15  C   UNL     1      25.868  24.228  26.030  0.00  0.00    +0.000 A 
ATOM     16  C   UNL     1      25.272  24.779  27.206  0.00  0.00    +0.000 A 
ATOM     17  C   UNL     1      25.649  24.385  28.457  0.00  0.00    +0.000 A 
BRANCH  12  19
ATOM     18  C   UNL     1      26.316  21.657  30.315  0.00  0.00    +0.000 C 
ATOM     19  C   UNL     1      27.037  22.949  29.959  0.00  0.00    +0.000 C 
ATOM     20  C   UNL     1      28.526  22.731  29.928  0.00  0.00    +0.000 C 
ATOM     21  C   UNL     1      26.722  24.045  30.972  0.00  0.00    +0.000 C 
ENDBRANCH  12  19
ENDBRANCH   1  15
TORSDOF 3
ENDMDL
MODEL 2
REMARK VINA RESULT:      -6.5      2.431      3.891
REMARK  Name = 
REMARK  3 active torsions:
REMARK  status: ('A' for Active; 'I' for Inactive)
REMARK    1  A    between atoms: C_2  and  C_5
REMARK    2  A    between atoms: C_8  and  C_9
REMARK    3  A    between atoms: C_9  and  N_10
REMARK                            x       y       z     vdW  Elec       q    Type
REMARK                         _______ _______ _______ _____ _____    ______ ____
ROOT
ATOM      1  C   UNL     1      26.566  22.678  24.569  0.00  0.00    +0.000 C 
ENDROOT
BRANCH   1   2
ATOM      2  N   UNL     1      27.813  23.112  24.037  0.00  0.00    +0.000 N 
ATOM      3  C   UNL     1      28.087  23.609  22.818  0.00  0.00    +0.000 A 
ATOM      4  N   UNL     1      27.072  23.810  21.819  0.00  0.00    +0.000 NA
ATOM      5  N   UNL     1      29.402  23.867  22.756  0.00  0.00    +0.000 NA
ATOM      6  C   UNL     1      29.932  23.532  23.925  0.00  0.00    +0.000 A 
ATOM      7  C   UNL     1      31.265  23.630  24.315  0.00  0.00    +0.000 A 
ATOM      8  C   UNL     1      31.573  23.215  25.597  0.00  0.00    +0.000 A 
ATOM      9  C   UNL     1      30.612  22.735  26.424  0.00  0.00    +0.000 A 
ATOM     10  C   UNL     1      29.301  22.646  26.021  0.00  0.00    +0.000 A 
ATOM     11  C   UNL     1      28.970  23.055  24.746  0.00  0.00    +0.000 A 
ENDBRANCH   1   2
BRANCH   1  15
ATOM     12  C   UNL     1      24.666  25.719  26.904  0.00  0.00    +0.000 A 
ATOM     13  C   UNL     1      25.295  24.686  27.544  0.00  0.00    +0.000 A 
ATOM     14  C   UNL     1      25.948  23.670  26.830  0.00  0.00    +0.000 A 
ATOM     15  C   UNL     1      25.973  23.686  25.465  0.00  0.00    +0.000 A 
ATOM     16  C   UNL     1      25.313  24.778  24.822  0.00  0.00    +0.000 A 
ATOM     17  C   UNL     1      24.681  25.757  25.533  0.00  0.00    +0.000 A 
BRANCH  12  19
ATOM     18  C   UNL     1      24.413  28.143  27.344  0.00  0.00    +0.000 C 
ATOM     19  C   UNL     1      23.957  26.739  27.714  0.00  0.00    +0.000 C 
ATOM     20  C   UNL     1      22.482  26.579  27.461  0.00  0.00    +0.000 C 
ATOM     21  C   UNL     1      24.239  26.444  29.184  0.00  0.00    +0.000 C 
ENDBRANCH  12  19
ENDBRANCH   1  15
TORSDOF 3
ENDMDL
MODEL 3
REMARK VINA RESULT:      -6.5     21.875     23.949
REMARK  Name = 
REMARK  3 active torsions:
REMARK  status: ('A' for Active; 'I' for Inactive)
REMARK    1  A    between atoms: C_2  and  C_5
REMARK    2  A    between atoms: C_8  and  C_9
REMARK    3  A    between atoms: C_9  and  N_10
REMARK                            x       y       z     vdW  Elec       q    Type
REMARK                         _______ _______ _______ _____ _____    ______ ____
ROOT
ATOM      1  C   UNL     1      24.230   0.751  17.723  0.00  0.00    +0.000 C 
ENDROOT
BRANCH   1   2
ATOM      2  N   UNL     1      23.252   0.650  16.694  0.00  0.00    +0.000 N 
ATOM      3  C   UNL     1      23.374   0.141  15.456  0.00  0.00    +0.000 A 
ATOM      4  N   UNL     1      24.599  -0.440  14.976  0.00  0.00    +0.000 NA
ATOM      5  N   UNL     1      22.195   0.273  14.830  0.00  0.00    +0.000 NA
ATOM      6  C   UNL     1      21.355   0.856  15.674  0.00  0.00    +0.000 A 
ATOM      7  C   UNL     1      20.020   1.188  15.455  0.00  0.00    +0.000 A 
ATOM      8  C   UNL     1      19.348   1.794  16.500  0.00  0.00    +0.000 A 
ATOM      9  C   UNL     1      19.973   2.050  17.676  0.00  0.00    +0.000 A 
ATOM     10  C   UNL     1      21.291   1.715  17.873  0.00  0.00    +0.000 A 
ATOM     11  C   UNL     1      21.982   1.109  16.845  0.00  0.00    +0.000 A 
ENDBRANCH   1   2
BRANCH   1  15
ATOM     12  C   UNL     1      26.318   4.486  17.787  0.00  0.00    +0.000 A 
ATOM     13  C   UNL     1      26.657   3.551  16.846  0.00  0.00    +0.000 A 
ATOM     14  C   UNL     1      25.996   2.316  16.768  0.00  0.00    +0.000 A 
ATOM     15  C   UNL     1      24.987   2.012  17.637  0.00  0.00    +0.000 A 
ATOM     16  C   UNL     1      24.651   3.008  18.605  0.00  0.00    +0.000 A 
ATOM     17  C   UNL     1      25.306   4.203  18.667  0.00  0.00    +0.000 A 
BRANCH  12  19
ATOM     18  C   UNL     1      27.639   5.994  19.240  0.00  0.00    +0.000 C 
ATOM     19  C   UNL     1      27.084   5.754  17.844  0.00  0.00    +0.000 C 
ATOM     20  C   UNL     1      28.202   5.658  16.841  0.00  0.00    +0.000 C 
ATOM     21  C   UNL     1      26.147   6.883  17.429  0.00  0.00    +0.000 C 
ENDBRANCH  12  19
ENDBRANCH   1  15
TORSDOF 3
ENDMDL
MODEL 4
REMARK VINA RESULT:      -6.5     18.169     20.972
REMARK  Name = 
REMARK  3 active torsions:
REMARK  status: ('A' for Active; 'I' for Inactive)
REMARK    1  A    between atoms: C_2  and  C_5
REMARK    2  A    between atoms: C_8  and  C_9
REMARK    3  A    between atoms: C_9  and  N_10
REMARK                            x       y       z     vdW  Elec       q    Type
REMARK                         _______ _______ _______ _____ _____    ______ ____
ROOT
ATOM      1  C   UNL     1      19.592  10.629  37.353  0.00  0.00    +0.000 C 
ENDROOT
BRANCH   1   2
ATOM      2  N   UNL     1      20.865  11.175  37.679  0.00  0.00    +0.000 N 
ATOM      3  C   UNL     1      21.158  12.268  38.404  0.00  0.00    +0.000 A 
ATOM      4  N   UNL     1      20.144  13.084  39.017  0.00  0.00    +0.000 NA
ATOM      5  N   UNL     1      22.492  12.407  38.435  0.00  0.00    +0.000 NA
ATOM      6  C   UNL     1      23.015  11.408  37.737  0.00  0.00    +0.000 A 
ATOM      7  C   UNL     1      24.363  11.147  37.503  0.00  0.00    +0.000 A 
ATOM      8  C   UNL     1      24.660  10.033  36.739  0.00  0.00    +0.000 A 
ATOM      9  C   UNL     1      23.675   9.243  36.246  0.00  0.00    +0.000 A 
ATOM     10  C   UNL     1      22.349   9.517  36.489  0.00  0.00    +0.000 A 
ATOM     11  C   UNL     1      22.029  10.622  37.249  0.00  0.00    +0.000 A 
ENDBRANCH   1   2
BRANCH   1  15
ATOM     12  C   UNL     1      17.684   8.414  40.478  0.00  0.00    +0.000 A 
ATOM     13  C   UNL     1      18.960   8.082  40.112  0.00  0.00    +0.000 A 
ATOM     14  C   UNL     1      19.640   8.783  39.106  0.00  0.00    +0.000 A 
ATOM     15  C   UNL     1      19.041   9.826  38.458  0.00  0.00    +0.000 A 
ATOM     16  C   UNL     1      17.710  10.154  38.863  0.00  0.00    +0.000 A 
ATOM     17  C   UNL     1      17.063   9.459  39.843  0.00  0.00    +0.000 A 
BRANCH  12  19
ATOM     18  C   UNL     1      17.191   6.118  41.263  0.00  0.00    +0.000 C 
ATOM     19  C   UNL     1      17.004   7.606  41.519  0.00  0.00    +0.000 C 
ATOM     20  C   UNL     1      17.593   7.990  42.851  0.00  0.00    +0.000 C 
ATOM     21  C   UNL     1      15.526   7.980  41.509  0.00  0.00    +0.000 C 
ENDBRANCH  12  19
ENDBRANCH   1  15
TORSDOF 3
ENDMDL
MODEL 5
REMARK VINA RESULT:      -6.4      2.738      7.004
REMARK  Name = 
REMARK  3 active torsions:
REMARK  status: ('A' for Active; 'I' for Inactive)
REMARK    1  A    between atoms: C_2  and  C_5
REMARK    2  A    between atoms: C_8  and  C_9
REMARK    3  A    between atoms: C_9  and  N_10
REMARK                            x       y       z     vdW  Elec       q    Type
REMARK                         _______ _______ _______ _____ _____    ______ ____
ROOT
ATOM      1  C   UNL     1      27.934  23.534  22.143  0.00  0.00    +0.000 C 
ENDROOT
BRANCH   1   2
ATOM      2  N   UNL     1      27.799  23.241  23.529  0.00  0.00    +0.000 N 
ATOM      3  C   UNL     1      26.681  23.129  24.267  0.00  0.00    +0.000 A 
ATOM      4  N   UNL     1      25.365  23.277  23.704  0.00  0.00    +0.000 NA
ATOM      5  N   UNL     1      27.037  22.858  25.531  0.00  0.00    +0.000 NA
ATOM      6  C   UNL     1      28.362  22.803  25.572  0.00  0.00    +0.000 A 
ATOM      7  C   UNL     1      29.170  22.545  26.676  0.00  0.00    +0.000 A 
ATOM      8  C   UNL     1      30.536  22.539  26.462  0.00  0.00    +0.000 A 
ATOM      9  C   UNL     1      31.050  22.777  25.230  0.00  0.00    +0.000 A 
ATOM     10  C   UNL     1      30.235  23.029  24.152  0.00  0.00    +0.000 A 
ATOM     11  C   UNL     1      28.870  23.039  24.341  0.00  0.00    +0.000 A 
ENDBRANCH   1   2
BRANCH   1  15
ATOM     12  C   UNL     1      28.775  27.620  21.187  0.00  0.00    +0.000 A 
ATOM     13  C   UNL     1      27.753  27.336  22.052  0.00  0.00    +0.000 A 
ATOM     14  C   UNL     1      27.443  26.018  22.414  0.00  0.00    +0.000 A 
ATOM     15  C   UNL     1      28.160  24.971  21.907  0.00  0.00    +0.000 A 
ATOM     16  C   UNL     1      29.224  25.295  21.010  0.00  0.00    +0.000 A 
ATOM     17  C   UNL     1      29.510  26.585  20.669  0.00  0.00    +0.000 A 
BRANCH  12  19
ATOM     18  C   UNL     1      27.743  29.709  20.350  0.00  0.00    +0.000 C 
ATOM     19  C   UNL     1      29.026  29.032  20.812  0.00  0.00    +0.000 C 
ATOM     20  C   UNL     1      29.587  29.733  22.020  0.00  0.00    +0.000 C 
ATOM     21  C   UNL     1      30.075  29.042  19.706  0.00  0.00    +0.000 C 
ENDBRANCH  12  19
ENDBRANCH   1  15
TORSDOF 3
ENDMDL
MODEL 6
REMARK VINA RESULT:      -6.4     17.698     19.518
REMARK  Name = 
REMARK  3 active torsions:
REMARK  status: ('A' for Active; 'I' for Inactive)
REMARK    1  A    between atoms: C_2  and  C_5
REMARK    2  A    between atoms: C_8  and  C_9
REMARK    3  A    between atoms: C_9  and  N_10
REMARK                            x       y       z     vdW  Elec       q    Type
REMARK                         _______ _______ _______ _____ _____    ______ ____
ROOT
ATOM      1  C   UNL     1      18.363   9.194  36.914  0.00  0.00    +0.000 C 
ENDROOT
BRANCH   1   2
ATOM      2  N   UNL     1      17.272  10.083  36.706  0.00  0.00    +0.000 N 
ATOM      3  C   UNL     1      16.413  10.596  37.604  0.00  0.00    +0.000 A 
ATOM      4  N   UNL     1      16.505  10.313  39.011  0.00  0.00    +0.000 NA
ATOM      5  N   UNL     1      15.536  11.373  36.950  0.00  0.00    +0.000 NA
ATOM      6  C   UNL     1      15.853  11.340  35.663  0.00  0.00    +0.000 A 
ATOM      7  C   UNL     1      15.220  12.001  34.613  0.00  0.00    +0.000 A 
ATOM      8  C   UNL     1      15.743  11.808  33.348  0.00  0.00    +0.000 A 
ATOM      9  C   UNL     1      16.820  11.008  33.153  0.00  0.00    +0.000 A 
ATOM     10  C   UNL     1      17.432  10.365  34.203  0.00  0.00    +0.000 A 
ATOM     11  C   UNL     1      16.929  10.543  35.474  0.00  0.00    +0.000 A 
ENDBRANCH   1   2
BRANCH   1  15
ATOM     12  C   UNL     1      22.055  11.172  37.792  0.00  0.00    +0.000 A 
ATOM     13  C   UNL     1      20.929  11.528  38.485  0.00  0.00    +0.000 A 
ATOM     14  C   UNL     1      19.696  10.903  38.250  0.00  0.00    +0.000 A 
ATOM     15  C   UNL     1      19.585   9.913  37.315  0.00  0.00    +0.000 A 
ATOM     16  C   UNL     1      20.776   9.559  36.610  0.00  0.00    +0.000 A 
ATOM     17  C   UNL     1      21.968  10.179  36.851  0.00  0.00    +0.000 A 
BRANCH  12  19
ATOM     18  C   UNL     1      24.254  11.825  36.859  0.00  0.00    +0.000 C 
ATOM     19  C   UNL     1      23.319  11.901  38.057  0.00  0.00    +0.000 C 
ATOM     20  C   UNL     1      22.966  13.333  38.360  0.00  0.00    +0.000 C 
ATOM     21  C   UNL     1      23.964  11.282  39.292  0.00  0.00    +0.000 C 
ENDBRANCH  12  19
ENDBRANCH   1  15
TORSDOF 3
ENDMDL
MODEL 7
REMARK VINA RESULT:      -6.4      4.375      6.266
REMARK  Name = 
REMARK  3 active torsions:
REMARK  status: ('A' for Active; 'I' for Inactive)
REMARK    1  A    between atoms: C_2  and  C_5
REMARK    2  A    between atoms: C_8  and  C_9
REMARK    3  A    between atoms: C_9  and  N_10
REMARK                            x       y       z     vdW  Elec       q    Type
REMARK                         _______ _______ _______ _____ _____    ______ ____
ROOT
ATOM      1  C   UNL     1      24.763  26.579  28.033  0.00  0.00    +0.000 C 
ENDROOT
BRANCH   1   2
ATOM      2  N   UNL     1      25.355  25.302  27.824  0.00  0.00    +0.000 N 
ATOM      3  C   UNL     1      25.747  24.391  28.731  0.00  0.00    +0.000 A 
ATOM      4  N   UNL     1      25.584  24.589  30.147  0.00  0.00    +0.000 NA
ATOM      5  N   UNL     1      26.266  23.342  28.076  0.00  0.00    +0.000 NA
ATOM      6  C   UNL     1      26.193  23.604  26.778  0.00  0.00    +0.000 A 
ATOM      7  C   UNL     1      26.609  22.798  25.721  0.00  0.00    +0.000 A 
ATOM      8  C   UNL     1      26.423  23.296  24.445  0.00  0.00    +0.000 A 
ATOM      9  C   UNL     1      25.863  24.514  24.246  0.00  0.00    +0.000 A 
ATOM     10  C   UNL     1      25.458  25.295  25.303  0.00  0.00    +0.000 A 
ATOM     11  C   UNL     1      25.633  24.819  26.584  0.00  0.00    +0.000 A 
ENDBRANCH   1   2
BRANCH   1  15
ATOM     12  C   UNL     1      20.543  26.492  28.739  0.00  0.00    +0.000 A 
ATOM     13  C   UNL     1      21.015  26.171  27.495  0.00  0.00    +0.000 A 
ATOM     14  C   UNL     1      22.389  26.167  27.211  0.00  0.00    +0.000 A 
ATOM     15  C   UNL     1      23.299  26.487  28.178  0.00  0.00    +0.000 A 
ATOM     16  C   UNL     1      22.779  26.813  29.468  0.00  0.00    +0.000 A 
ATOM     17  C   UNL     1      21.439  26.813  29.726  0.00  0.00    +0.000 A 
BRANCH  12  19
ATOM     18  C   UNL     1      18.743  27.142  30.311  0.00  0.00    +0.000 C 
ATOM     19  C   UNL     1      19.077  26.519  28.963  0.00  0.00    +0.000 C 
ATOM     20  C   UNL     1      18.459  27.316  27.846  0.00  0.00    +0.000 C 
ATOM     21  C   UNL     1      18.567  25.084  28.884  0.00  0.00    +0.000 C 
ENDBRANCH  12  19
ENDBRANCH   1  15
TORSDOF 3
ENDMDL
MODEL 8
REMARK VINA RESULT:      -6.4     17.439     19.391
REMARK  Name = 
REMARK  3 active torsions:
REMARK  status: ('A' for Active; 'I' for Inactive)
REMARK    1  A    between atoms: C_2  and  C_5
REMARK    2  A    between atoms: C_8  and  C_9
REMARK    3  A    between atoms: C_9  and  N_10
REMARK                            x       y       z     vdW  Elec       q    Type
REMARK                         _______ _______ _______ _____ _____    ______ ____
ROOT
ATOM      1  C   UNL     1      21.395  11.369  39.865  0.00  0.00    +0.000 C 
ENDROOT
BRANCH   1   2
ATOM      2  N   UNL     1      22.455  11.732  38.989  0.00  0.00    +0.000 N 
ATOM      3  C   UNL     1      23.170  12.870  38.950  0.00  0.00    +0.000 A 
ATOM      4  N   UNL     1      22.960  13.948  39.879  0.00  0.00    +0.000 NA
ATOM      5  N   UNL     1      24.055  12.776  37.946  0.00  0.00    +0.000 NA
ATOM      6  C   UNL     1      23.888  11.591  37.374  0.00  0.00    +0.000 A 
ATOM      7  C   UNL     1      24.590  11.060  36.295  0.00  0.00    +0.000 A 
ATOM      8  C   UNL     1      24.228   9.792  35.878  0.00  0.00    +0.000 A 
ATOM      9  C   UNL     1      23.234   9.111  36.499  0.00  0.00    +0.000 A 
ATOM     10  C   UNL     1      22.553   9.653  37.563  0.00  0.00    +0.000 A 
ATOM     11  C   UNL     1      22.896  10.915  37.997  0.00  0.00    +0.000 A 
ENDBRANCH   1   2
BRANCH   1  15
ATOM     12  C   UNL     1      17.738  11.487  37.645  0.00  0.00    +0.000 A 
ATOM     13  C   UNL     1      18.031  10.373  38.385  0.00  0.00    +0.000 A 
ATOM     14  C   UNL     1      19.207  10.285  39.144  0.00  0.00    +0.000 A 
ATOM     15  C   UNL     1      20.099  11.320  39.166  0.00  0.00    +0.000 A 
ATOM     16  C   UNL     1      19.767  12.472  38.389  0.00  0.00    +0.000 A 
ATOM     17  C   UNL     1      18.618  12.538  37.655  0.00  0.00    +0.000 A 
BRANCH  12  19
ATOM     18  C   UNL     1      16.631  10.582  35.624  0.00  0.00    +0.000 C 
ATOM     19  C   UNL     1      16.500  11.500  36.831  0.00  0.00    +0.000 C 
ATOM     20  C   UNL     1      15.367  11.051  37.715  0.00  0.00    +0.000 C 
ATOM     21  C   UNL     1      16.243  12.939  36.396  0.00  0.00    +0.000 C 
ENDBRANCH  12  19
ENDBRANCH   1  15
TORSDOF 3
ENDMDL
MODEL 9
REMARK VINA RESULT:      -6.2      4.226      8.014
REMARK  Name = 
REMARK  3 active torsions:
REMARK  status: ('A' for Active; 'I' for Inactive)
REMARK    1  A    between atoms: C_2  and  C_5
REMARK    2  A    between atoms: C_8  and  C_9
REMARK    3  A    between atoms: C_9  and  N_10
REMARK                            x       y       z     vdW  Elec       q    Type
REMARK                         _______ _______ _______ _____ _____    ______ ____
ROOT
ATOM      1  C   UNL     1      27.975  26.226  22.698  0.00  0.00    +0.000 C 
ENDROOT
BRANCH   1   2
ATOM      2  N   UNL     1      28.434  24.917  23.014  0.00  0.00    +0.000 N 
ATOM      3  C   UNL     1      27.867  23.730  22.738  0.00  0.00    +0.000 A 
ATOM      4  N   UNL     1      26.634  23.613  22.005  0.00  0.00    +0.000 NA
ATOM      5  N   UNL     1      28.648  22.763  23.243  0.00  0.00    +0.000 NA
ATOM      6  C   UNL     1      29.687  23.349  23.823  0.00  0.00    +0.000 A 
ATOM      7  C   UNL     1      30.755  22.738  24.475  0.00  0.00    +0.000 A 
ATOM      8  C   UNL     1      31.725  23.571  25.002  0.00  0.00    +0.000 A 
ATOM      9  C   UNL     1      31.625  24.918  24.884  0.00  0.00    +0.000 A 
ATOM     10  C   UNL     1      30.563  25.503  24.236  0.00  0.00    +0.000 A 
ATOM     11  C   UNL     1      29.584  24.692  23.702  0.00  0.00    +0.000 A 
ENDBRANCH   1   2
BRANCH   1  15
ATOM     12  C   UNL     1      30.074  28.168  19.514  0.00  0.00    +0.000 A 
ATOM     13  C   UNL     1      29.997  26.801  19.524  0.00  0.00    +0.000 A 
ATOM     14  C   UNL     1      29.309  26.112  20.533  0.00  0.00    +0.000 A 
ATOM     15  C   UNL     1      28.691  26.794  21.543  0.00  0.00    +0.000 A 
ATOM     16  C   UNL     1      28.783  28.219  21.506  0.00  0.00    +0.000 A 
ATOM     17  C   UNL     1      29.459  28.872  20.517  0.00  0.00    +0.000 A 
BRANCH  12  19
ATOM     18  C   UNL     1      29.933  29.388  17.364  0.00  0.00    +0.000 C 
ATOM     19  C   UNL     1      30.852  28.834  18.443  0.00  0.00    +0.000 C 
ATOM     20  C   UNL     1      31.648  29.943  19.078  0.00  0.00    +0.000 C 
ATOM     21  C   UNL     1      31.818  27.807  17.861  0.00  0.00    +0.000 C 
ENDBRANCH  12  19
ENDBRANCH   1  15
TORSDOF 3
ENDMDL
MODEL 10
REMARK VINA RESULT:      -6.2      2.248      3.579
REMARK  Name = 
REMARK  3 active torsions:
REMARK  status: ('A' for Active; 'I' for Inactive)
REMARK    1  A    between atoms: C_2  and  C_5
REMARK    2  A    between atoms: C_8  and  C_9
REMARK    3  A    between atoms: C_9  and  N_10
REMARK                            x       y       z     vdW  Elec       q    Type
REMARK                         _______ _______ _______ _____ _____    ______ ____
ROOT
ATOM      1  C   UNL     1      27.114  22.540  25.551  0.00  0.00    +0.000 C 
ENDROOT
BRANCH   1   2
ATOM      2  N   UNL     1      26.954  23.809  24.928  0.00  0.00    +0.000 N 
ATOM      3  C   UNL     1      26.210  24.858  25.320  0.00  0.00    +0.000 A 
ATOM      4  N   UNL     1      25.434  24.846  26.531  0.00  0.00    +0.000 NA
ATOM      5  N   UNL     1      26.353  25.837  24.414  0.00  0.00    +0.000 NA
ATOM      6  C   UNL     1      27.178  25.395  23.474  0.00  0.00    +0.000 A 
ATOM      7  C   UNL     1      27.617  26.073  22.339  0.00  0.00    +0.000 A 
ATOM      8  C   UNL     1      28.485  25.394  21.503  0.00  0.00    +0.000 A 
ATOM      9  C   UNL     1      28.879  24.129  21.786  0.00  0.00    +0.000 A 
ATOM     10  C   UNL     1      28.436  23.477  22.912  0.00  0.00    +0.000 A 
ATOM     11  C   UNL     1      27.570  24.134  23.761  0.00  0.00    +0.000 A 
ENDBRANCH   1   2
BRANCH   1  15
ATOM     12  C   UNL     1      30.440  22.611  28.243  0.00  0.00    +0.000 A 
ATOM     13  C   UNL     1      29.187  22.873  28.727  0.00  0.00    +0.000 A 
ATOM     14  C   UNL     1      28.059  22.848  27.895  0.00  0.00    +0.000 A 
ATOM     15  C   UNL     1      28.182  22.558  26.566  0.00  0.00    +0.000 A 
ATOM     16  C   UNL     1      29.500  22.284  26.087  0.00  0.00    +0.000 A 
ATOM     17  C   UNL     1      30.587  22.314  26.912  0.00  0.00    +0.000 A 
BRANCH  12  19
ATOM     18  C   UNL     1      32.426  21.420  29.119  0.00  0.00    +0.000 C 
ATOM     19  C   UNL     1      31.597  22.695  29.166  0.00  0.00    +0.000 C 
ATOM     20  C   UNL     1      32.427  23.880  28.751  0.00  0.00    +0.000 C 
ATOM     21  C   UNL     1      31.056  22.942  30.570  0.00  0.00    +0.000 C 
ENDBRANCH  12  19
ENDBRANCH   1  15
TORSDOF 3
ENDMDL
