MODEL 1
REMARK VINA RESULT:      -6.7      0.000      0.000
REMARK  Name = 
REMARK  4 active torsions:
REMARK  status: ('A' for Active; 'I' for Inactive)
REMARK    1  A    between atoms: C_2  and  N_3
REMARK    2  A    between atoms: C_2  and  C_15
REMARK    3  A    between atoms: C_4  and  C_6
REMARK    4  A    between atoms: C_9  and  N_10
REMARK                            x       y       z     vdW  Elec       q    Type
REMARK                         _______ _______ _______ _____ _____    ______ ____
ROOT
ATOM      1  N   UNL     1      17.748   9.829  37.693  0.00  0.00    +0.000 NA
ATOM      2  C   UNL     1      18.152   9.938  36.392  0.00  0.00    +0.000 C 
ATOM      3  O   UNL     1      19.316   9.553  36.096  0.00  0.00    +0.000 OA
ENDROOT
BRANCH   2   4
ATOM      4  C   UNL     1      17.275  10.491  35.325  0.00  0.00    +0.000 A 
ATOM      5  C   UNL     1      17.503  10.174  34.001  0.00  0.00    +0.000 A 
ATOM      6  C   UNL     1      16.680  10.683  33.030  0.00  0.00    +0.000 A 
ATOM      7  C   UNL     1      15.611  11.508  33.274  0.00  0.00    +0.000 A 
ATOM      8  C   UNL     1      15.392  11.822  34.623  0.00  0.00    +0.000 A 
ATOM      9  C   UNL     1      16.218  11.313  35.604  0.00  0.00    +0.000 A 
BRANCH   7  10
ATOM     10  N   UNL     1      14.773  12.016  32.241  0.00  0.00    +0.000 N 
ATOM     11  O   UNL     1      14.537  11.241  31.283  0.00  0.00    +0.000 OA
ATOM     12  O   UNL     1      14.293  13.281  32.349  0.00  0.00    +0.000 OA
ENDBRANCH   7  10
ENDBRANCH   2   4
BRANCH   1  14
ATOM     13  C   UNL     1      19.131  10.689  39.313  0.00  0.00    +0.000 C 
ATOM     14  C   UNL     1      18.719   9.248  38.704  0.00  0.00    +0.000 C 
BRANCH  14  15
ATOM     15  C   UNL     1      17.560   8.869  39.842  0.00  0.00    +0.000 C 
ATOM     16  C   UNL     1      18.016   7.377  40.049  0.00  0.00    +0.000 C 
ATOM     17  C   UNL     1      17.682   7.207  41.623  0.00  0.00    +0.000 C 
ATOM     18  C   UNL     1      16.444   8.236  41.740  0.00  0.00    +0.000 C 
ATOM     19  C   UNL     1      16.979   9.523  42.082  0.00  0.00    +0.000 C 
ATOM     20  C   UNL     1      18.326   9.561  41.155  0.00  0.00    +0.000 C 
ATOM     21  C   UNL     1      18.876   8.270  41.891  0.00  0.00    +0.000 C 
ENDBRANCH  14  15
ENDBRANCH   1  14
TORSDOF 4
ENDMDL
MODEL 2
REMARK VINA RESULT:      -6.6     20.078     21.878
REMARK  Name = 
REMARK  4 active torsions:
REMARK  status: ('A' for Active; 'I' for Inactive)
REMARK    1  A    between atoms: C_2  and  N_3
REMARK    2  A    between atoms: C_2  and  C_15
REMARK    3  A    between atoms: C_4  and  C_6
REMARK    4  A    between atoms: C_9  and  N_10
REMARK                            x       y       z     vdW  Elec       q    Type
REMARK                         _______ _______ _______ _____ _____    ______ ____
ROOT
ATOM      1  N   UNL     1      33.551  -3.206  33.112  0.00  0.00    +0.000 NA
ATOM      2  C   UNL     1      34.069  -2.421  34.103  0.00  0.00    +0.000 C 
ATOM      3  O   UNL     1      34.677  -2.984  35.053  0.00  0.00    +0.000 OA
ENDROOT
BRANCH   2   4
ATOM      4  C   UNL     1      33.941  -0.938  34.099  0.00  0.00    +0.000 A 
ATOM      5  C   UNL     1      34.083  -0.230  32.923  0.00  0.00    +0.000 A 
ATOM      6  C   UNL     1      33.952   1.135  32.933  0.00  0.00    +0.000 A 
ATOM      7  C   UNL     1      33.681   1.880  34.052  0.00  0.00    +0.000 A 
ATOM      8  C   UNL     1      33.539   1.147  35.240  0.00  0.00    +0.000 A 
ATOM      9  C   UNL     1      33.671  -0.226  35.235  0.00  0.00    +0.000 A 
BRANCH   7  10
ATOM     10  N   UNL     1      33.546   3.297  34.026  0.00  0.00    +0.000 N 
ATOM     11  O   UNL     1      33.177   3.802  32.939  0.00  0.00    +0.000 OA
ATOM     12  O   UNL     1      33.824   4.002  35.153  0.00  0.00    +0.000 OA
ENDBRANCH   7  10
ENDBRANCH   2   4
BRANCH   1  14
ATOM     13  C   UNL     1      32.159  -5.013  33.386  0.00  0.00    +0.000 C 
ATOM     14  C   UNL     1      33.738  -4.709  33.209  0.00  0.00    +0.000 C 
BRANCH  14  15
ATOM     15  C   UNL     1      33.813  -4.969  31.564  0.00  0.00    +0.000 C 
ATOM     16  C   UNL     1      35.166  -5.772  31.587  0.00  0.00    +0.000 C 
ATOM     17  C   UNL     1      34.888  -6.808  30.376  0.00  0.00    +0.000 C 
ATOM     18  C   UNL     1      33.911  -5.895  29.470  0.00  0.00    +0.000 C 
ATOM     19  C   UNL     1      32.563  -6.156  29.887  0.00  0.00    +0.000 C 
ATOM     20  C   UNL     1      32.748  -6.253  31.509  0.00  0.00    +0.000 C 
ATOM     21  C   UNL     1      33.752  -7.465  31.328  0.00  0.00    +0.000 C 
ENDBRANCH  14  15
ENDBRANCH   1  14
TORSDOF 4
ENDMDL
MODEL 3
REMARK VINA RESULT:      -6.6      1.351      2.228
REMARK  Name = 
REMARK  4 active torsions:
REMARK  status: ('A' for Active; 'I' for Inactive)
REMARK    1  A    between atoms: C_2  and  N_3
REMARK    2  A    between atoms: C_2  and  C_15
REMARK    3  A    between atoms: C_4  and  C_6
REMARK    4  A    between atoms: C_9  and  N_10
REMARK                            x       y       z     vdW  Elec       q    Type
REMARK                         _______ _______ _______ _____ _____    ______ ____
ROOT
ATOM      1  N   UNL     1      17.273   9.766  38.744  0.00  0.00    +0.000 NA
ATOM      2  C   UNL     1      17.936  10.503  37.802  0.00  0.00    +0.000 C 
ATOM      3  O   UNL     1      19.042  11.018  38.119  0.00  0.00    +0.000 OA
ENDROOT
BRANCH   2   4
ATOM      4  C   UNL     1      17.400  10.715  36.431  0.00  0.00    +0.000 A 
ATOM      5  C   UNL     1      16.442  11.681  36.198  0.00  0.00    +0.000 A 
ATOM      6  C   UNL     1      15.965  11.872  34.927  0.00  0.00    +0.000 A 
ATOM      7  C   UNL     1      16.377  11.160  33.829  0.00  0.00    +0.000 A 
ATOM      8  C   UNL     1      17.351  10.183  34.080  0.00  0.00    +0.000 A 
ATOM      9  C   UNL     1      17.833   9.985  35.357  0.00  0.00    +0.000 A 
BRANCH   7  10
ATOM     10  N   UNL     1      15.864  11.388  32.521  0.00  0.00    +0.000 N 
ATOM     11  O   UNL     1      16.281  10.625  31.617  0.00  0.00    +0.000 OA
ATOM     12  O   UNL     1      14.977  12.399  32.332  0.00  0.00    +0.000 OA
ENDBRANCH   7  10
ENDBRANCH   2   4
BRANCH   1  14
ATOM     13  C   UNL     1      16.493   9.410  40.875  0.00  0.00    +0.000 C 
ATOM     14  C   UNL     1      17.907   9.608  40.114  0.00  0.00    +0.000 C 
BRANCH  14  15
ATOM     15  C   UNL     1      18.272   7.991  39.937  0.00  0.00    +0.000 C 
ATOM     16  C   UNL     1      19.823   8.149  40.145  0.00  0.00    +0.000 C 
ATOM     17  C   UNL     1      20.141   6.752  40.898  0.00  0.00    +0.000 C 
ATOM     18  C   UNL     1      18.984   5.834  40.244  0.00  0.00    +0.000 C 
ATOM     19  C   UNL     1      17.827   5.926  41.088  0.00  0.00    +0.000 C 
ATOM     20  C   UNL     1      17.848   7.514  41.480  0.00  0.00    +0.000 C 
ATOM     21  C   UNL     1      19.278   7.338  42.139  0.00  0.00    +0.000 C 
ENDBRANCH  14  15
ENDBRANCH   1  14
TORSDOF 4
ENDMDL
MODEL 4
REMARK VINA RESULT:      -6.5     30.561     31.627
REMARK  Name = 
REMARK  4 active torsions:
REMARK  status: ('A' for Active; 'I' for Inactive)
REMARK    1  A    between atoms: C_2  and  N_3
REMARK    2  A    between atoms: C_2  and  C_15
REMARK    3  A    between atoms: C_4  and  C_6
REMARK    4  A    between atoms: C_9  and  N_10
REMARK                            x       y       z     vdW  Elec       q    Type
REMARK                         _______ _______ _______ _____ _____    ______ ____
ROOT
ATOM      1  N   UNL     1      34.089  20.506  12.041  0.00  0.00    +0.000 NA
ATOM      2  C   UNL     1      33.074  20.308  11.146  0.00  0.00    +0.000 C 
ATOM      3  O   UNL     1      33.293  19.561  10.154  0.00  0.00    +0.000 OA
ENDROOT
BRANCH   2   4
ATOM      4  C   UNL     1      31.735  20.938  11.301  0.00  0.00    +0.000 A 
ATOM      5  C   UNL     1      30.752  20.728  10.356  0.00  0.00    +0.000 A 
ATOM      6  C   UNL     1      29.520  21.307  10.518  0.00  0.00    +0.000 A 
ATOM      7  C   UNL     1      29.171  22.103  11.579  0.00  0.00    +0.000 A 
ATOM      8  C   UNL     1      30.180  22.308  12.532  0.00  0.00    +0.000 A 
ATOM      9  C   UNL     1      31.421  21.729  12.373  0.00  0.00    +0.000 A 
BRANCH   7  10
ATOM     10  N   UNL     1      27.879  22.686  11.719  0.00  0.00    +0.000 N 
ATOM     11  O   UNL     1      26.946  22.129  11.092  0.00  0.00    +0.000 OA
ATOM     12  O   UNL     1      27.738  23.786  12.501  0.00  0.00    +0.000 OA
ENDBRANCH   7  10
ENDBRANCH   2   4
BRANCH   1  14
ATOM     13  C   UNL     1      36.137  21.146  11.221  0.00  0.00    +0.000 C 
ATOM     14  C   UNL     1      35.416  19.815  11.792  0.00  0.00    +0.000 C 
BRANCH  14  15
ATOM     15  C   UNL     1      35.962  19.943  13.362  0.00  0.00    +0.000 C 
ATOM     16  C   UNL     1      35.876  18.407  13.691  0.00  0.00    +0.000 C 
ATOM     17  C   UNL     1      37.142  18.271  14.689  0.00  0.00    +0.000 C 
ATOM     18  C   UNL     1      37.138  19.758  15.320  0.00  0.00    +0.000 C 
ATOM     19  C   UNL     1      37.982  20.579  14.501  0.00  0.00    +0.000 C 
ATOM     20  C   UNL     1      37.590  20.044  13.006  0.00  0.00    +0.000 C 
ATOM     21  C   UNL     1      38.070  18.585  13.398  0.00  0.00    +0.000 C 
ENDBRANCH  14  15
ENDBRANCH   1  14
TORSDOF 4
ENDMDL
MODEL 5
REMARK VINA RESULT:      -6.2     21.088     23.079
REMARK  Name = 
REMARK  4 active torsions:
REMARK  status: ('A' for Active; 'I' for Inactive)
REMARK    1  A    between atoms: C_2  and  N_3
REMARK    2  A    between atoms: C_2  and  C_15
REMARK    3  A    between atoms: C_4  and  C_6
REMARK    4  A    between atoms: C_9  and  N_10
REMARK                            x       y       z     vdW  Elec       q    Type
REMARK                         _______ _______ _______ _____ _____    ______ ____
ROOT
ATOM      1  N   UNL     1      32.247  -6.128  32.000  0.00  0.00    +0.000 NA
ATOM      2  C   UNL     1      32.755  -5.793  33.224  0.00  0.00    +0.000 C 
ATOM      3  O   UNL     1      33.226  -6.714  33.945  0.00  0.00    +0.000 OA
ENDROOT
BRANCH   2   4
ATOM      4  C   UNL     1      32.770  -4.393  33.728  0.00  0.00    +0.000 A 
ATOM      5  C   UNL     1      33.555  -3.439  33.113  0.00  0.00    +0.000 A 
ATOM      6  C   UNL     1      33.550  -2.151  33.583  0.00  0.00    +0.000 A 
ATOM      7  C   UNL     1      32.803  -1.717  34.649  0.00  0.00    +0.000 A 
ATOM      8  C   UNL     1      32.011  -2.697  35.264  0.00  0.00    +0.000 A 
ATOM      9  C   UNL     1      32.013  -3.995  34.796  0.00  0.00    +0.000 A 
BRANCH   7  10
ATOM     10  N   UNL     1      32.819  -0.369  35.108  0.00  0.00    +0.000 N 
ATOM     11  O   UNL     1      32.904   0.519  34.227  0.00  0.00    +0.000 OA
ATOM     12  O   UNL     1      32.746  -0.132  36.443  0.00  0.00    +0.000 OA
ENDBRANCH   7  10
ENDBRANCH   2   4
BRANCH   1  14
ATOM     13  C   UNL     1      30.690  -7.665  31.302  0.00  0.00    +0.000 C 
ATOM     14  C   UNL     1      32.282  -7.585  31.578  0.00  0.00    +0.000 C 
BRANCH  14  15
ATOM     15  C   UNL     1      32.748  -7.287  30.005  0.00  0.00    +0.000 C 
ATOM     16  C   UNL     1      32.702  -5.718  30.115  0.00  0.00    +0.000 C 
ATOM     17  C   UNL     1      33.923  -5.339  29.124  0.00  0.00    +0.000 C 
ATOM     18  C   UNL     1      33.836  -6.594  28.111  0.00  0.00    +0.000 C 
ATOM     19  C   UNL     1      34.688  -7.628  28.625  0.00  0.00    +0.000 C 
ATOM     20  C   UNL     1      34.387  -7.517  30.228  0.00  0.00    +0.000 C 
ATOM     21  C   UNL     1      34.900  -6.018  30.226  0.00  0.00    +0.000 C 
ENDBRANCH  14  15
ENDBRANCH   1  14
TORSDOF 4
ENDMDL
MODEL 6
REMARK VINA RESULT:      -6.1      2.899      4.117
REMARK  Name = 
REMARK  4 active torsions:
REMARK  status: ('A' for Active; 'I' for Inactive)
REMARK    1  A    between atoms: C_2  and  N_3
REMARK    2  A    between atoms: C_2  and  C_15
REMARK    3  A    between atoms: C_4  and  C_6
REMARK    4  A    between atoms: C_9  and  N_10
REMARK                            x       y       z     vdW  Elec       q    Type
REMARK                         _______ _______ _______ _____ _____    ______ ____
ROOT
ATOM      1  N   UNL     1      18.195   7.546  39.756  0.00  0.00    +0.000 NA
ATOM      2  C   UNL     1      18.299   8.895  39.560  0.00  0.00    +0.000 C 
ATOM      3  O   UNL     1      18.839   9.588  40.465  0.00  0.00    +0.000 OA
ENDROOT
BRANCH   2   4
ATOM      4  C   UNL     1      17.802   9.566  38.329  0.00  0.00    +0.000 A 
ATOM      5  C   UNL     1      18.405   9.323  37.111  0.00  0.00    +0.000 A 
ATOM      6  C   UNL     1      17.929   9.941  35.983  0.00  0.00    +0.000 A 
ATOM      7  C   UNL     1      16.866  10.808  35.964  0.00  0.00    +0.000 A 
ATOM      8  C   UNL     1      16.264  11.046  37.208  0.00  0.00    +0.000 A 
ATOM      9  C   UNL     1      16.739  10.428  38.346  0.00  0.00    +0.000 A 
BRANCH   7  10
ATOM     10  N   UNL     1      16.395  11.430  34.772  0.00  0.00    +0.000 N 
ATOM     11  O   UNL     1      15.429  12.220  34.901  0.00  0.00    +0.000 OA
ATOM     12  O   UNL     1      17.001  11.133  33.595  0.00  0.00    +0.000 OA
ENDBRANCH   7  10
ENDBRANCH   2   4
BRANCH   1  14
ATOM     13  C   UNL     1      17.373   6.160  41.392  0.00  0.00    +0.000 C 
ATOM     14  C   UNL     1      18.736   6.960  41.046  0.00  0.00    +0.000 C 
BRANCH  14  15
ATOM     15  C   UNL     1      19.540   5.691  40.322  0.00  0.00    +0.000 C 
ATOM     16  C   UNL     1      20.988   6.189  40.680  0.00  0.00    +0.000 C 
ATOM     17  C   UNL     1      21.721   4.764  40.897  0.00  0.00    +0.000 C 
ATOM     18  C   UNL     1      20.850   3.864  39.878  0.00  0.00    +0.000 C 
ATOM     19  C   UNL     1      19.750   3.313  40.616  0.00  0.00    +0.000 C 
ATOM     20  C   UNL     1      19.332   4.585  41.556  0.00  0.00    +0.000 C 
ATOM     21  C   UNL     1      20.778   4.588  42.204  0.00  0.00    +0.000 C 
ENDBRANCH  14  15
ENDBRANCH   1  14
TORSDOF 4
ENDMDL
MODEL 7
REMARK VINA RESULT:      -5.9      2.161      2.669
REMARK  Name = 
REMARK  4 active torsions:
REMARK  status: ('A' for Active; 'I' for Inactive)
REMARK    1  A    between atoms: C_2  and  N_3
REMARK    2  A    between atoms: C_2  and  C_15
REMARK    3  A    between atoms: C_4  and  C_6
REMARK    4  A    between atoms: C_9  and  N_10
REMARK                            x       y       z     vdW  Elec       q    Type
REMARK                         _______ _______ _______ _____ _____    ______ ____
ROOT
ATOM      1  N   UNL     1      18.151   9.881  39.087  0.00  0.00    +0.000 NA
ATOM      2  C   UNL     1      17.750   9.903  37.780  0.00  0.00    +0.000 C 
ATOM      3  O   UNL     1      18.384   9.195  36.951  0.00  0.00    +0.000 OA
ENDROOT
BRANCH   2   4
ATOM      4  C   UNL     1      16.603  10.725  37.308  0.00  0.00    +0.000 A 
ATOM      5  C   UNL     1      16.656  11.355  36.081  0.00  0.00    +0.000 A 
ATOM      6  C   UNL     1      15.587  12.101  35.655  0.00  0.00    +0.000 A 
ATOM      7  C   UNL     1      14.431  12.278  36.371  0.00  0.00    +0.000 A 
ATOM      8  C   UNL     1      14.391  11.633  37.616  0.00  0.00    +0.000 A 
ATOM      9  C   UNL     1      15.464  10.882  38.049  0.00  0.00    +0.000 A 
BRANCH   7  10
ATOM     10  N   UNL     1      13.337  13.057  35.897  0.00  0.00    +0.000 N 
ATOM     11  O   UNL     1      13.571  13.811  34.922  0.00  0.00    +0.000 OA
ATOM     12  O   UNL     1      12.134  12.943  36.516  0.00  0.00    +0.000 OA
ENDBRANCH   7  10
ENDBRANCH   2   4
BRANCH   1  14
ATOM     13  C   UNL     1      19.977  10.104  40.462  0.00  0.00    +0.000 C 
ATOM     14  C   UNL     1      19.331   9.006  39.465  0.00  0.00    +0.000 C 
BRANCH  14  15
ATOM     15  C   UNL     1      18.517   8.130  40.626  0.00  0.00    +0.000 C 
ATOM     16  C   UNL     1      18.471   6.783  39.814  0.00  0.00    +0.000 C 
ATOM     17  C   UNL     1      18.595   5.725  41.031  0.00  0.00    +0.000 C 
ATOM     18  C   UNL     1      17.884   6.586  42.198  0.00  0.00    +0.000 C 
ATOM     19  C   UNL     1      18.906   7.341  42.865  0.00  0.00    +0.000 C 
ATOM     20  C   UNL     1      19.834   7.803  41.600  0.00  0.00    +0.000 C 
ATOM     21  C   UNL     1      20.102   6.284  41.236  0.00  0.00    +0.000 C 
ENDBRANCH  14  15
ENDBRANCH   1  14
TORSDOF 4
ENDMDL
MODEL 8
REMARK VINA RESULT:      -5.9     19.488     22.588
REMARK  Name = 
REMARK  4 active torsions:
REMARK  status: ('A' for Active; 'I' for Inactive)
REMARK    1  A    between atoms: C_2  and  N_3
REMARK    2  A    between atoms: C_2  and  C_15
REMARK    3  A    between atoms: C_4  and  C_6
REMARK    4  A    between atoms: C_9  and  N_10
REMARK                            x       y       z     vdW  Elec       q    Type
REMARK                         _______ _______ _______ _____ _____    ______ ____
ROOT
ATOM      1  N   UNL     1      27.252  24.240  24.012  0.00  0.00    +0.000 NA
ATOM      2  C   UNL     1      27.851  23.393  24.902  0.00  0.00    +0.000 C 
ATOM      3  O   UNL     1      28.827  22.702  24.501  0.00  0.00    +0.000 OA
ENDROOT
BRANCH   2   4
ATOM      4  C   UNL     1      27.395  23.259  26.312  0.00  0.00    +0.000 A 
ATOM      5  C   UNL     1      28.072  22.435  27.188  0.00  0.00    +0.000 A 
ATOM      6  C   UNL     1      27.645  22.330  28.488  0.00  0.00    +0.000 A 
ATOM      7  C   UNL     1      26.566  22.999  29.006  0.00  0.00    +0.000 A 
ATOM      8  C   UNL     1      25.888  23.832  28.104  0.00  0.00    +0.000 A 
ATOM      9  C   UNL     1      26.312  23.941  26.796  0.00  0.00    +0.000 A 
BRANCH   7  10
ATOM     10  N   UNL     1      26.153  22.870  30.363  0.00  0.00    +0.000 N 
ATOM     11  O   UNL     1      26.027  23.937  31.011  0.00  0.00    +0.000 OA
ATOM     12  O   UNL     1      25.930  21.628  30.863  0.00  0.00    +0.000 OA
ENDBRANCH   7  10
ENDBRANCH   2   4
BRANCH   1  14
ATOM     13  C   UNL     1      26.524  23.544  21.948  0.00  0.00    +0.000 C 
ATOM     14  C   UNL     1      27.796  24.304  22.598  0.00  0.00    +0.000 C 
BRANCH  14  15
ATOM     15  C   UNL     1      27.280  25.861  22.296  0.00  0.00    +0.000 C 
ATOM     16  C   UNL     1      27.841  26.480  23.629  0.00  0.00    +0.000 C 
ATOM     17  C   UNL     1      28.249  27.952  23.096  0.00  0.00    +0.000 C 
ATOM     18  C   UNL     1      27.151  28.118  21.924  0.00  0.00    +0.000 C 
ATOM     19  C   UNL     1      27.730  27.613  20.711  0.00  0.00    +0.000 C 
ATOM     20  C   UNL     1      28.520  26.293  21.265  0.00  0.00    +0.000 C 
ATOM     21  C   UNL     1      29.393  27.210  22.219  0.00  0.00    +0.000 C 
ENDBRANCH  14  15
ENDBRANCH   1  14
TORSDOF 4
ENDMDL
MODEL 9
REMARK VINA RESULT:      -5.9     19.906     21.939
REMARK  Name = 
REMARK  4 active torsions:
REMARK  status: ('A' for Active; 'I' for Inactive)
REMARK    1  A    between atoms: C_2  and  N_3
REMARK    2  A    between atoms: C_2  and  C_15
REMARK    3  A    between atoms: C_4  and  C_6
REMARK    4  A    between atoms: C_9  and  N_10
REMARK                            x       y       z     vdW  Elec       q    Type
REMARK                         _______ _______ _______ _____ _____    ______ ____
ROOT
ATOM      1  N   UNL     1      28.169  23.558  25.538  0.00  0.00    +0.000 NA
ATOM      2  C   UNL     1      27.499  23.662  24.352  0.00  0.00    +0.000 C 
ATOM      3  O   UNL     1      26.438  22.996  24.207  0.00  0.00    +0.000 OA
ENDROOT
BRANCH   2   4
ATOM      4  C   UNL     1      27.975  24.524  23.236  0.00  0.00    +0.000 A 
ATOM      5  C   UNL     1      28.977  24.084  22.394  0.00  0.00    +0.000 A 
ATOM      6  C   UNL     1      29.399  24.885  21.365  0.00  0.00    +0.000 A 
ATOM      7  C   UNL     1      28.889  26.129  21.092  0.00  0.00    +0.000 A 
ATOM      8  C   UNL     1      27.873  26.563  21.955  0.00  0.00    +0.000 A 
ATOM      9  C   UNL     1      27.446  25.761  22.993  0.00  0.00    +0.000 A 
BRANCH   7  10
ATOM     10  N   UNL     1      29.348  26.934  20.010  0.00  0.00    +0.000 N 
ATOM     11  O   UNL     1      28.924  28.114  19.974  0.00  0.00    +0.000 OA
ATOM     12  O   UNL     1      30.194  26.387  19.100  0.00  0.00    +0.000 OA
ENDBRANCH   7  10
ENDBRANCH   2   4
BRANCH   1  14
ATOM     13  C   UNL     1      29.033  22.023  27.013  0.00  0.00    +0.000 C 
ATOM     14  C   UNL     1      27.597  22.652  26.613  0.00  0.00    +0.000 C 
BRANCH  14  15
ATOM     15  C   UNL     1      27.548  23.822  27.800  0.00  0.00    +0.000 C 
ATOM     16  C   UNL     1      25.980  23.874  27.915  0.00  0.00    +0.000 C 
ATOM     17  C   UNL     1      25.832  24.178  29.497  0.00  0.00    +0.000 C 
ATOM     18  C   UNL     1      27.200  25.003  29.733  0.00  0.00    +0.000 C 
ATOM     19  C   UNL     1      28.218  24.060  30.098  0.00  0.00    +0.000 C 
ATOM     20  C   UNL     1      27.872  22.817  29.094  0.00  0.00    +0.000 C 
ATOM     21  C   UNL     1      26.430  22.691  29.739  0.00  0.00    +0.000 C 
ENDBRANCH  14  15
ENDBRANCH   1  14
TORSDOF 4
ENDMDL
MODEL 10
REMARK VINA RESULT:      -5.8     18.611     21.451
REMARK  Name = 
REMARK  4 active torsions:
REMARK  status: ('A' for Active; 'I' for Inactive)
REMARK    1  A    between atoms: C_2  and  N_3
REMARK    2  A    between atoms: C_2  and  C_15
REMARK    3  A    between atoms: C_4  and  C_6
REMARK    4  A    between atoms: C_9  and  N_10
REMARK                            x       y       z     vdW  Elec       q    Type
REMARK                         _______ _______ _______ _____ _____    ______ ____
ROOT
ATOM      1  N   UNL     1      26.016  23.905  25.932  0.00  0.00    +0.000 NA
ATOM      2  C   UNL     1      26.519  23.681  27.184  0.00  0.00    +0.000 C 
ATOM      3  O   UNL     1      27.467  22.859  27.306  0.00  0.00    +0.000 OA
ENDROOT
BRANCH   2   4
ATOM      4  C   UNL     1      25.990  24.367  28.393  0.00  0.00    +0.000 A 
ATOM      5  C   UNL     1      25.068  25.387  28.269  0.00  0.00    +0.000 A 
ATOM      6  C   UNL     1      24.581  26.003  29.393  0.00  0.00    +0.000 A 
ATOM      7  C   UNL     1      24.946  25.677  30.675  0.00  0.00    +0.000 A 
ATOM      8  C   UNL     1      25.884  24.640  30.786  0.00  0.00    +0.000 A 
ATOM      9  C   UNL     1      26.377  24.018  29.658  0.00  0.00    +0.000 A 
BRANCH   7  10
ATOM     10  N   UNL     1      24.418  26.335  31.822  0.00  0.00    +0.000 N 
ATOM     11  O   UNL     1      25.177  27.153  32.395  0.00  0.00    +0.000 OA
ATOM     12  O   UNL     1      23.153  26.042  32.220  0.00  0.00    +0.000 OA
ENDBRANCH   7  10
ENDBRANCH   2   4
BRANCH   1  14
ATOM     13  C   UNL     1      25.325  23.323  23.821  0.00  0.00    +0.000 C 
ATOM     14  C   UNL     1      26.628  23.155  24.764  0.00  0.00    +0.000 C 
BRANCH  14  15
ATOM     15  C   UNL     1      27.482  24.457  24.167  0.00  0.00    +0.000 C 
ATOM     16  C   UNL     1      28.889  23.755  24.190  0.00  0.00    +0.000 C 
ATOM     17  C   UNL     1      29.557  24.440  22.885  0.00  0.00    +0.000 C 
ATOM     18  C   UNL     1      28.792  25.862  22.916  0.00  0.00    +0.000 C 
ATOM     19  C   UNL     1      27.599  25.730  22.129  0.00  0.00    +0.000 C 
ATOM     20  C   UNL     1      27.103  24.231  22.556  0.00  0.00    +0.000 C 
ATOM     21  C   UNL     1      28.462  23.622  22.015  0.00  0.00    +0.000 C 
ENDBRANCH  14  15
ENDBRANCH   1  14
TORSDOF 4
ENDMDL
