MODEL 1
REMARK VINA RESULT:      -7.7      0.000      0.000
REMARK  Name = 
REMARK  4 active torsions:
REMARK  status: ('A' for Active; 'I' for Inactive)
REMARK    1  A    between atoms: C_2  and  C_3
REMARK    2  A    between atoms: C_3  and  O_4
REMARK    3  A    between atoms: O_4  and  C_5
REMARK    4  A    between atoms: C_5  and  C_7
REMARK                            x       y       z     vdW  Elec       q    Type
REMARK                         _______ _______ _______ _____ _____    ______ ____
ROOT
ATOM      1  C   UNL     1      16.344  11.036  35.815  0.00  0.00    +0.000 A 
ATOM      2  C   UNL     1      17.112  10.034  35.264  0.00  0.00    +0.000 A 
ATOM      3  C   UNL     1      17.922   9.136  36.114  0.00  0.00    +0.000 C 
ATOM      4  N   UNL     1      17.103   9.899  33.927  0.00  0.00    +0.000 NA
ATOM      5  C   UNL     1      16.355  10.728  33.135  0.00  0.00    +0.000 A 
ATOM      6  S   UNL     1      16.138  10.809  31.451  0.00  0.00    +0.000 S 
ATOM      7  C   UNL     1      15.051  12.132  31.379  0.00  0.00    +0.000 A 
ATOM      8  C   UNL     1      14.893  12.471  32.690  0.00  0.00    +0.000 A 
ATOM      9  C   UNL     1      15.568  11.743  33.605  0.00  0.00    +0.000 A 
ATOM     10  C   UNL     1      15.597  11.863  35.013  0.00  0.00    +0.000 A 
ATOM     11  N   UNL     1      14.848  12.856  35.706  0.00  0.00    +0.000 NA
ATOM     12  C   UNL     1      13.961  13.649  33.010  0.00  0.00    +0.000 C 
ATOM     13  C   UNL     1      13.918  14.559  31.834  0.00  0.00    +0.000 C 
ATOM     14  C   UNL     1      13.327  13.739  30.690  0.00  0.00    +0.000 C 
ATOM     15  C   UNL     1      14.388  12.823  30.223  0.00  0.00    +0.000 C 
ENDROOT
BRANCH   1  16
ATOM     16  C   UNL     1      16.348  11.191  37.276  0.00  0.00    +0.000 C 
ATOM     17  O   UNL     1      17.167  11.978  37.802  0.00  0.00    +0.000 OA
BRANCH  16  18
ATOM     18  O   UNL     1      15.496  10.519  38.126  0.00  0.00    +0.000 OA
BRANCH  18  19
ATOM     19  C   UNL     1      14.373  11.065  38.747  0.00  0.00    +0.000 C 
BRANCH  19  21
ATOM     20  C   UNL     1      12.160  10.895  37.323  0.00  0.00    +0.000 C 
ATOM     21  C   UNL     1      13.151  10.962  37.968  0.00  0.00    +0.000 C 
ENDBRANCH  19  21
ENDBRANCH  18  19
ENDBRANCH  16  18
ENDBRANCH   1  16
TORSDOF 4
ENDMDL
MODEL 2
REMARK VINA RESULT:      -7.5      2.270      4.264
REMARK  Name = 
REMARK  4 active torsions:
REMARK  status: ('A' for Active; 'I' for Inactive)
REMARK    1  A    between atoms: C_2  and  C_3
REMARK    2  A    between atoms: C_3  and  O_4
REMARK    3  A    between atoms: O_4  and  C_5
REMARK    4  A    between atoms: C_5  and  C_7
REMARK                            x       y       z     vdW  Elec       q    Type
REMARK                         _______ _______ _______ _____ _____    ______ ____
ROOT
ATOM      1  C   UNL     1      17.039  10.397  35.546  0.00  0.00    +0.000 A 
ATOM      2  C   UNL     1      16.468  10.922  36.684  0.00  0.00    +0.000 A 
ATOM      3  C   UNL     1      16.879  10.464  38.028  0.00  0.00    +0.000 C 
ATOM      4  N   UNL     1      15.523  11.865  36.534  0.00  0.00    +0.000 NA
ATOM      5  C   UNL     1      15.138  12.293  35.292  0.00  0.00    +0.000 A 
ATOM      6  S   UNL     1      13.996  13.445  34.784  0.00  0.00    +0.000 S 
ATOM      7  C   UNL     1      14.200  13.304  33.089  0.00  0.00    +0.000 A 
ATOM      8  C   UNL     1      15.166  12.349  32.975  0.00  0.00    +0.000 A 
ATOM      9  C   UNL     1      15.656  11.822  34.117  0.00  0.00    +0.000 A 
ATOM     10  C   UNL     1      16.646  10.831  34.304  0.00  0.00    +0.000 A 
ATOM     11  N   UNL     1      17.313  10.209  33.211  0.00  0.00    +0.000 NA
ATOM     12  C   UNL     1      15.611  11.957  31.557  0.00  0.00    +0.000 C 
ATOM     13  C   UNL     1      14.493  12.224  30.613  0.00  0.00    +0.000 C 
ATOM     14  C   UNL     1      14.246  13.729  30.670  0.00  0.00    +0.000 C 
ATOM     15  C   UNL     1      13.536  14.001  31.937  0.00  0.00    +0.000 C 
ENDROOT
BRANCH   1  16
ATOM     16  C   UNL     1      18.073   9.364  35.700  0.00  0.00    +0.000 C 
ATOM     17  O   UNL     1      17.725   8.167  35.816  0.00  0.00    +0.000 OA
BRANCH  16  18
ATOM     18  O   UNL     1      19.426   9.626  35.726  0.00  0.00    +0.000 OA
BRANCH  18  19
ATOM     19  C   UNL     1      20.194   9.810  36.877  0.00  0.00    +0.000 C 
BRANCH  19  21
ATOM     20  C   UNL     1      22.793   9.841  36.432  0.00  0.00    +0.000 C 
ATOM     21  C   UNL     1      21.627   9.822  36.641  0.00  0.00    +0.000 C 
ENDBRANCH  19  21
ENDBRANCH  18  19
ENDBRANCH  16  18
ENDBRANCH   1  16
TORSDOF 4
ENDMDL
MODEL 3
REMARK VINA RESULT:      -7.2      1.580      2.775
REMARK  Name = 
REMARK  4 active torsions:
REMARK  status: ('A' for Active; 'I' for Inactive)
REMARK    1  A    between atoms: C_2  and  C_3
REMARK    2  A    between atoms: C_3  and  O_4
REMARK    3  A    between atoms: O_4  and  C_5
REMARK    4  A    between atoms: C_5  and  C_7
REMARK                            x       y       z     vdW  Elec       q    Type
REMARK                         _______ _______ _______ _____ _____    ______ ____
ROOT
ATOM      1  C   UNL     1      16.638  11.047  35.840  0.00  0.00    +0.000 A 
ATOM      2  C   UNL     1      17.360  10.021  35.270  0.00  0.00    +0.000 A 
ATOM      3  C   UNL     1      18.223   9.145  36.091  0.00  0.00    +0.000 C 
ATOM      4  N   UNL     1      17.255   9.842  33.943  0.00  0.00    +0.000 NA
ATOM      5  C   UNL     1      16.457  10.650  33.178  0.00  0.00    +0.000 A 
ATOM      6  S   UNL     1      16.122  10.676  31.512  0.00  0.00    +0.000 S 
ATOM      7  C   UNL     1      15.040  12.005  31.472  0.00  0.00    +0.000 A 
ATOM      8  C   UNL     1      14.977  12.388  32.779  0.00  0.00    +0.000 A 
ATOM      9  C   UNL     1      15.712  11.686  33.668  0.00  0.00    +0.000 A 
ATOM     10  C   UNL     1      15.841  11.853  35.066  0.00  0.00    +0.000 A 
ATOM     11  N   UNL     1      15.149  12.874  35.775  0.00  0.00    +0.000 NA
ATOM     12  C   UNL     1      14.077  13.584  33.124  0.00  0.00    +0.000 C 
ATOM     13  C   UNL     1      13.955  14.454  31.924  0.00  0.00    +0.000 C 
ATOM     14  C   UNL     1      13.280  13.602  30.853  0.00  0.00    +0.000 C 
ATOM     15  C   UNL     1      14.300  12.662  30.344  0.00  0.00    +0.000 C 
ENDROOT
BRANCH   1  16
ATOM     16  C   UNL     1      16.747  11.251  37.292  0.00  0.00    +0.000 C 
ATOM     17  O   UNL     1      16.006  10.592  38.055  0.00  0.00    +0.000 OA
BRANCH  16  18
ATOM     18  O   UNL     1      17.625  12.134  37.882  0.00  0.00    +0.000 OA
BRANCH  18  19
ATOM     19  C   UNL     1      19.016  12.024  37.869  0.00  0.00    +0.000 C 
BRANCH  19  21
ATOM     20  C   UNL     1      20.297  14.222  38.564  0.00  0.00    +0.000 C 
ATOM     21  C   UNL     1      19.712  13.239  38.255  0.00  0.00    +0.000 C 
ENDBRANCH  19  21
ENDBRANCH  18  19
ENDBRANCH  16  18
ENDBRANCH   1  16
TORSDOF 4
ENDMDL
MODEL 4
REMARK VINA RESULT:      -6.1      3.003      4.956
REMARK  Name = 
REMARK  4 active torsions:
REMARK  status: ('A' for Active; 'I' for Inactive)
REMARK    1  A    between atoms: C_2  and  C_3
REMARK    2  A    between atoms: C_3  and  O_4
REMARK    3  A    between atoms: O_4  and  C_5
REMARK    4  A    between atoms: C_5  and  C_7
REMARK                            x       y       z     vdW  Elec       q    Type
REMARK                         _______ _______ _______ _____ _____    ______ ____
ROOT
ATOM      1  C   UNL     1      17.560   9.637  38.617  0.00  0.00    +0.000 A 
ATOM      2  C   UNL     1      16.512  10.064  39.402  0.00  0.00    +0.000 A 
ATOM      3  C   UNL     1      16.482   9.788  40.854  0.00  0.00    +0.000 C 
ATOM      4  N   UNL     1      15.515  10.740  38.806  0.00  0.00    +0.000 NA
ATOM      5  C   UNL     1      15.537  10.997  37.462  0.00  0.00    +0.000 A 
ATOM      6  S   UNL     1      14.451  11.809  36.437  0.00  0.00    +0.000 S 
ATOM      7  C   UNL     1      15.294  11.637  34.955  0.00  0.00    +0.000 A 
ATOM      8  C   UNL     1      16.410  10.942  35.315  0.00  0.00    +0.000 A 
ATOM      9  C   UNL     1      16.540  10.608  36.617  0.00  0.00    +0.000 A 
ATOM     10  C   UNL     1      17.574   9.900  37.269  0.00  0.00    +0.000 A 
ATOM     11  N   UNL     1      18.712   9.405  36.573  0.00  0.00    +0.000 NA
ATOM     12  C   UNL     1      17.420  10.599  34.209  0.00  0.00    +0.000 C 
ATOM     13  C   UNL     1      16.702  10.538  32.908  0.00  0.00    +0.000 C 
ATOM     14  C   UNL     1      16.143  11.938  32.670  0.00  0.00    +0.000 C 
ATOM     15  C   UNL     1      14.974  12.092  33.561  0.00  0.00    +0.000 C 
ENDROOT
BRANCH   1  16
ATOM     16  C   UNL     1      18.654   8.897  39.261  0.00  0.00    +0.000 C 
ATOM     17  O   UNL     1      18.634   7.646  39.245  0.00  0.00    +0.000 OA
BRANCH  16  18
ATOM     18  O   UNL     1      19.723   9.495  39.892  0.00  0.00    +0.000 OA
BRANCH  18  19
ATOM     19  C   UNL     1      20.858  10.003  39.259  0.00  0.00    +0.000 C 
BRANCH  19  21
ATOM     20  C   UNL     1      20.587  12.471  38.372  0.00  0.00    +0.000 C 
ATOM     21  C   UNL     1      20.713  11.366  38.780  0.00  0.00    +0.000 C 
ENDBRANCH  19  21
ENDBRANCH  18  19
ENDBRANCH  16  18
ENDBRANCH   1  16
TORSDOF 4
ENDMDL
MODEL 5
REMARK VINA RESULT:      -6.0     19.945     22.122
REMARK  Name = 
REMARK  4 active torsions:
REMARK  status: ('A' for Active; 'I' for Inactive)
REMARK    1  A    between atoms: C_2  and  C_3
REMARK    2  A    between atoms: C_3  and  O_4
REMARK    3  A    between atoms: O_4  and  C_5
REMARK    4  A    between atoms: C_5  and  C_7
REMARK                            x       y       z     vdW  Elec       q    Type
REMARK                         _______ _______ _______ _____ _____    ______ ____
ROOT
ATOM      1  C   UNL     1      33.354  -0.946  35.462  0.00  0.00    +0.000 A 
ATOM      2  C   UNL     1      33.727  -1.174  36.768  0.00  0.00    +0.000 A 
ATOM      3  C   UNL     1      33.700  -2.535  37.345  0.00  0.00    +0.000 C 
ATOM      4  N   UNL     1      34.117  -0.119  37.503  0.00  0.00    +0.000 NA
ATOM      5  C   UNL     1      34.143   1.144  36.974  0.00  0.00    +0.000 A 
ATOM      6  S   UNL     1      34.578   2.649  37.634  0.00  0.00    +0.000 S 
ATOM      7  C   UNL     1      34.300   3.638  36.262  0.00  0.00    +0.000 A 
ATOM      8  C   UNL     1      33.871   2.748  35.323  0.00  0.00    +0.000 A 
ATOM      9  C   UNL     1      33.789   1.451  35.689  0.00  0.00    +0.000 A 
ATOM     10  C   UNL     1      33.383   0.324  34.939  0.00  0.00    +0.000 A 
ATOM     11  N   UNL     1      32.974   0.424  33.580  0.00  0.00    +0.000 NA
ATOM     12  C   UNL     1      33.519   3.298  33.933  0.00  0.00    +0.000 C 
ATOM     13  C   UNL     1      33.120   4.725  34.069  0.00  0.00    +0.000 C 
ATOM     14  C   UNL     1      34.347   5.455  34.610  0.00  0.00    +0.000 C 
ATOM     15  C   UNL     1      34.453   5.116  36.044  0.00  0.00    +0.000 C 
ENDROOT
BRANCH   1  16
ATOM     16  C   UNL     1      32.926  -2.094  34.650  0.00  0.00    +0.000 C 
ATOM     17  O   UNL     1      31.741  -2.488  34.732  0.00  0.00    +0.000 OA
BRANCH  16  18
ATOM     18  O   UNL     1      33.754  -2.780  33.789  0.00  0.00    +0.000 OA
BRANCH  18  19
ATOM     19  C   UNL     1      33.805  -4.167  33.646  0.00  0.00    +0.000 C 
BRANCH  19  21
ATOM     20  C   UNL     1      33.453  -5.031  31.179  0.00  0.00    +0.000 C 
ATOM     21  C   UNL     1      33.612  -4.633  32.284  0.00  0.00    +0.000 C 
ENDBRANCH  19  21
ENDBRANCH  18  19
ENDBRANCH  16  18
ENDBRANCH   1  16
TORSDOF 4
ENDMDL
MODEL 6
REMARK VINA RESULT:      -5.8     17.418     18.639
REMARK  Name = 
REMARK  4 active torsions:
REMARK  status: ('A' for Active; 'I' for Inactive)
REMARK    1  A    between atoms: C_2  and  C_3
REMARK    2  A    between atoms: C_3  and  O_4
REMARK    3  A    between atoms: O_4  and  C_5
REMARK    4  A    between atoms: C_5  and  C_7
REMARK                            x       y       z     vdW  Elec       q    Type
REMARK                         _______ _______ _______ _____ _____    ______ ____
ROOT
ATOM      1  C   UNL     1      27.641  22.930  29.531  0.00  0.00    +0.000 A 
ATOM      2  C   UNL     1      28.914  22.719  30.013  0.00  0.00    +0.000 A 
ATOM      3  C   UNL     1      29.163  22.526  31.458  0.00  0.00    +0.000 C 
ATOM      4  N   UNL     1      29.924  22.693  29.128  0.00  0.00    +0.000 NA
ATOM      5  C   UNL     1      29.700  22.871  27.789  0.00  0.00    +0.000 A 
ATOM      6  S   UNL     1      30.745  22.892  26.449  0.00  0.00    +0.000 S 
ATOM      7  C   UNL     1      29.595  23.173  25.210  0.00  0.00    +0.000 A 
ATOM      8  C   UNL     1      28.418  23.243  25.894  0.00  0.00    +0.000 A 
ATOM      9  C   UNL     1      28.468  23.086  27.234  0.00  0.00    +0.000 A 
ATOM     10  C   UNL     1      27.425  23.108  28.187  0.00  0.00    +0.000 A 
ATOM     11  N   UNL     1      26.066  23.318  27.820  0.00  0.00    +0.000 NA
ATOM     12  C   UNL     1      27.139  23.494  25.081  0.00  0.00    +0.000 C 
ATOM     13  C   UNL     1      27.499  24.220  23.833  0.00  0.00    +0.000 C 
ATOM     14  C   UNL     1      28.422  23.286  23.055  0.00  0.00    +0.000 C 
ATOM     15  C   UNL     1      29.740  23.326  23.724  0.00  0.00    +0.000 C 
ENDROOT
BRANCH   1  16
ATOM     16  C   UNL     1      26.530  22.960  30.492  0.00  0.00    +0.000 C 
ATOM     17  O   UNL     1      25.874  21.914  30.697  0.00  0.00    +0.000 OA
BRANCH  16  18
ATOM     18  O   UNL     1      26.151  24.082  31.198  0.00  0.00    +0.000 OA
BRANCH  18  19
ATOM     19  C   UNL     1      26.267  25.398  30.751  0.00  0.00    +0.000 C 
BRANCH  19  21
ATOM     20  C   UNL     1      24.126  26.290  29.497  0.00  0.00    +0.000 C 
ATOM     21  C   UNL     1      25.094  25.896  30.054  0.00  0.00    +0.000 C 
ENDBRANCH  19  21
ENDBRANCH  18  19
ENDBRANCH  16  18
ENDBRANCH   1  16
TORSDOF 4
ENDMDL
MODEL 7
REMARK VINA RESULT:      -5.8     19.832     21.808
REMARK  Name = 
REMARK  4 active torsions:
REMARK  status: ('A' for Active; 'I' for Inactive)
REMARK    1  A    between atoms: C_2  and  C_3
REMARK    2  A    between atoms: C_3  and  O_4
REMARK    3  A    between atoms: O_4  and  C_5
REMARK    4  A    between atoms: C_5  and  C_7
REMARK                            x       y       z     vdW  Elec       q    Type
REMARK                         _______ _______ _______ _____ _____    ______ ____
ROOT
ATOM      1  C   UNL     1      27.926  23.518  23.568  0.00  0.00    +0.000 A 
ATOM      2  C   UNL     1      26.711  23.161  24.112  0.00  0.00    +0.000 A 
ATOM      3  C   UNL     1      25.475  23.180  23.302  0.00  0.00    +0.000 C 
ATOM      4  N   UNL     1      26.686  22.795  25.404  0.00  0.00    +0.000 NA
ATOM      5  C   UNL     1      27.828  22.776  26.159  0.00  0.00    +0.000 A 
ATOM      6  S   UNL     1      28.116  22.369  27.785  0.00  0.00    +0.000 S 
ATOM      7  C   UNL     1      29.807  22.639  27.838  0.00  0.00    +0.000 A 
ATOM      8  C   UNL     1      30.093  23.043  26.568  0.00  0.00    +0.000 A 
ATOM      9  C   UNL     1      29.068  23.115  25.693  0.00  0.00    +0.000 A 
ATOM     10  C   UNL     1      29.066  23.496  24.332  0.00  0.00    +0.000 A 
ATOM     11  N   UNL     1      30.253  23.887  23.652  0.00  0.00    +0.000 NA
ATOM     12  C   UNL     1      31.557  23.382  26.246  0.00  0.00    +0.000 C 
ATOM     13  C   UNL     1      32.240  23.800  27.499  0.00  0.00    +0.000 C 
ATOM     14  C   UNL     1      32.190  22.590  28.429  0.00  0.00    +0.000 C 
ATOM     15  C   UNL     1      30.809  22.501  28.947  0.00  0.00    +0.000 C 
ENDROOT
BRANCH   1  16
ATOM     16  C   UNL     1      27.963  23.921  22.155  0.00  0.00    +0.000 C 
ATOM     17  O   UNL     1      28.372  23.103  21.301  0.00  0.00    +0.000 OA
BRANCH  16  18
ATOM     18  O   UNL     1      27.571  25.159  21.696  0.00  0.00    +0.000 OA
BRANCH  18  19
ATOM     19  C   UNL     1      28.304  26.340  21.822  0.00  0.00    +0.000 C 
BRANCH  19  21
ATOM     20  C   UNL     1      29.875  26.883  19.775  0.00  0.00    +0.000 C 
ATOM     21  C   UNL     1      29.166  26.630  20.690  0.00  0.00    +0.000 C 
ENDBRANCH  19  21
ENDBRANCH  18  19
ENDBRANCH  16  18
ENDBRANCH   1  16
TORSDOF 4
ENDMDL
MODEL 8
REMARK VINA RESULT:      -5.8      3.524      5.784
REMARK  Name = 
REMARK  4 active torsions:
REMARK  status: ('A' for Active; 'I' for Inactive)
REMARK    1  A    between atoms: C_2  and  C_3
REMARK    2  A    between atoms: C_3  and  O_4
REMARK    3  A    between atoms: O_4  and  C_5
REMARK    4  A    between atoms: C_5  and  C_7
REMARK                            x       y       z     vdW  Elec       q    Type
REMARK                         _______ _______ _______ _____ _____    ______ ____
ROOT
ATOM      1  C   UNL     1      18.169  10.466  38.676  0.00  0.00    +0.000 A 
ATOM      2  C   UNL     1      17.585   9.727  39.681  0.00  0.00    +0.000 A 
ATOM      3  C   UNL     1      18.403   8.928  40.617  0.00  0.00    +0.000 C 
ATOM      4  N   UNL     1      16.246   9.755  39.783  0.00  0.00    +0.000 NA
ATOM      5  C   UNL     1      15.483  10.492  38.919  0.00  0.00    +0.000 A 
ATOM      6  S   UNL     1      13.804  10.727  38.792  0.00  0.00    +0.000 S 
ATOM      7  C   UNL     1      13.777  11.784  37.444  0.00  0.00    +0.000 A 
ATOM      8  C   UNL     1      15.097  11.920  37.134  0.00  0.00    +0.000 A 
ATOM      9  C   UNL     1      15.987  11.251  37.898  0.00  0.00    +0.000 A 
ATOM     10  C   UNL     1      17.396  11.204  37.813  0.00  0.00    +0.000 A 
ATOM     11  N   UNL     1      18.122  11.921  36.821  0.00  0.00    +0.000 NA
ATOM     12  C   UNL     1      15.457  12.822  35.943  0.00  0.00    +0.000 C 
ATOM     13  C   UNL     1      14.303  12.858  35.004  0.00  0.00    +0.000 C 
ATOM     14  C   UNL     1      13.147  13.480  35.782  0.00  0.00    +0.000 C 
ATOM     15  C   UNL     1      12.646  12.445  36.711  0.00  0.00    +0.000 C 
ENDROOT
BRANCH   1  16
ATOM     16  C   UNL     1      19.634  10.442  38.556  0.00  0.00    +0.000 C 
ATOM     17  O   UNL     1      20.312  11.256  39.222  0.00  0.00    +0.000 OA
BRANCH  16  18
ATOM     18  O   UNL     1      20.326   9.568  37.746  0.00  0.00    +0.000 OA
BRANCH  18  19
ATOM     19  C   UNL     1      21.051   9.919  36.607  0.00  0.00    +0.000 C 
BRANCH  19  21
ATOM     20  C   UNL     1      23.539   9.045  36.576  0.00  0.00    +0.000 C 
ATOM     21  C   UNL     1      22.421   9.438  36.601  0.00  0.00    +0.000 C 
ENDBRANCH  19  21
ENDBRANCH  18  19
ENDBRANCH  16  18
ENDBRANCH   1  16
TORSDOF 4
ENDMDL
MODEL 9
REMARK VINA RESULT:      -5.8     20.667     22.473
REMARK  Name = 
REMARK  4 active torsions:
REMARK  status: ('A' for Active; 'I' for Inactive)
REMARK    1  A    between atoms: C_2  and  C_3
REMARK    2  A    between atoms: C_3  and  O_4
REMARK    3  A    between atoms: O_4  and  C_5
REMARK    4  A    between atoms: C_5  and  C_7
REMARK                            x       y       z     vdW  Elec       q    Type
REMARK                         _______ _______ _______ _____ _____    ______ ____
ROOT
ATOM      1  C   UNL     1      19.101  -7.769  26.691  0.00  0.00    +0.000 A 
ATOM      2  C   UNL     1      19.138  -8.966  27.373  0.00  0.00    +0.000 A 
ATOM      3  C   UNL     1      18.027  -9.378  28.257  0.00  0.00    +0.000 C 
ATOM      4  N   UNL     1      20.218  -9.748  27.210  0.00  0.00    +0.000 NA
ATOM      5  C   UNL     1      21.250  -9.371  26.393  0.00  0.00    +0.000 A 
ATOM      6  S   UNL     1      22.720 -10.124  25.988  0.00  0.00    +0.000 S 
ATOM      7  C   UNL     1      23.351  -8.937  24.925  0.00  0.00    +0.000 A 
ATOM      8  C   UNL     1      22.381  -7.980  24.923  0.00  0.00    +0.000 A 
ATOM      9  C   UNL     1      21.287  -8.202  25.684  0.00  0.00    +0.000 A 
ATOM     10  C   UNL     1      20.140  -7.399  25.874  0.00  0.00    +0.000 A 
ATOM     11  N   UNL     1      19.979  -6.141  25.228  0.00  0.00    +0.000 NA
ATOM     12  C   UNL     1      22.616  -6.733  24.056  0.00  0.00    +0.000 C 
ATOM     13  C   UNL     1      24.082  -6.531  23.897  0.00  0.00    +0.000 C 
ATOM     14  C   UNL     1      24.600  -7.765  23.165  0.00  0.00    +0.000 C 
ATOM     15  C   UNL     1      24.634  -8.868  24.149  0.00  0.00    +0.000 C 
ENDROOT
BRANCH   1  16
ATOM     16  C   UNL     1      17.923  -6.907  26.864  0.00  0.00    +0.000 C 
ATOM     17  O   UNL     1      17.925  -6.051  27.778  0.00  0.00    +0.000 OA
BRANCH  16  18
ATOM     18  O   UNL     1      16.795  -6.975  26.076  0.00  0.00    +0.000 OA
BRANCH  18  19
ATOM     19  C   UNL     1      16.315  -8.124  25.446  0.00  0.00    +0.000 C 
BRANCH  19  21
ATOM     20  C   UNL     1      13.828  -8.731  26.083  0.00  0.00    +0.000 C 
ATOM     21  C   UNL     1      14.943  -8.459  25.786  0.00  0.00    +0.000 C 
ENDBRANCH  19  21
ENDBRANCH  18  19
ENDBRANCH  16  18
ENDBRANCH   1  16
TORSDOF 4
ENDMDL
MODEL 10
REMARK VINA RESULT:      -5.6     22.000     23.756
REMARK  Name = 
REMARK  4 active torsions:
REMARK  status: ('A' for Active; 'I' for Inactive)
REMARK    1  A    between atoms: C_2  and  C_3
REMARK    2  A    between atoms: C_3  and  O_4
REMARK    3  A    between atoms: O_4  and  C_5
REMARK    4  A    between atoms: C_5  and  C_7
REMARK                            x       y       z     vdW  Elec       q    Type
REMARK                         _______ _______ _______ _____ _____    ______ ____
ROOT
ATOM      1  C   UNL     1      28.135  25.130  22.526  0.00  0.00    +0.000 A 
ATOM      2  C   UNL     1      27.429  25.969  23.360  0.00  0.00    +0.000 A 
ATOM      3  C   UNL     1      26.655  25.439  24.503  0.00  0.00    +0.000 C 
ATOM      4  N   UNL     1      27.465  27.287  23.102  0.00  0.00    +0.000 NA
ATOM      5  C   UNL     1      28.180  27.783  22.045  0.00  0.00    +0.000 A 
ATOM      6  S   UNL     1      28.417  29.365  21.470  0.00  0.00    +0.000 S 
ATOM      7  C   UNL     1      29.433  29.021  20.134  0.00  0.00    +0.000 A 
ATOM      8  C   UNL     1      29.554  27.664  20.182  0.00  0.00    +0.000 A 
ATOM      9  C   UNL     1      28.905  27.017  21.174  0.00  0.00    +0.000 A 
ATOM     10  C   UNL     1      28.849  25.636  21.468  0.00  0.00    +0.000 A 
ATOM     11  N   UNL     1      29.534  24.665  20.685  0.00  0.00    +0.000 NA
ATOM     12  C   UNL     1      30.418  26.990  19.105  0.00  0.00    +0.000 C 
ATOM     13  C   UNL     1      30.430  27.852  17.893  0.00  0.00    +0.000 C 
ATOM     14  C   UNL     1      31.080  29.166  18.317  0.00  0.00    +0.000 C 
ATOM     15  C   UNL     1      30.076  29.908  19.108  0.00  0.00    +0.000 C 
ENDROOT
BRANCH   1  16
ATOM     16  C   UNL     1      28.101  23.686  22.801  0.00  0.00    +0.000 C 
ATOM     17  O   UNL     1      27.074  23.035  22.506  0.00  0.00    +0.000 OA
BRANCH  16  18
ATOM     18  O   UNL     1      29.142  22.985  23.372  0.00  0.00    +0.000 OA
BRANCH  18  19
ATOM     19  C   UNL     1      29.582  23.118  24.689  0.00  0.00    +0.000 C 
BRANCH  19  21
ATOM     20  C   UNL     1      27.826  22.381  26.514  0.00  0.00    +0.000 C 
ATOM     21  C   UNL     1      28.607  22.712  25.687  0.00  0.00    +0.000 C 
ENDBRANCH  19  21
ENDBRANCH  18  19
ENDBRANCH  16  18
ENDBRANCH   1  16
TORSDOF 4
ENDMDL
