MODEL 1
REMARK VINA RESULT:      -6.8      0.000      0.000
REMARK  Name = 
REMARK  2 active torsions:
REMARK  status: ('A' for Active; 'I' for Inactive)
REMARK    1  A    between atoms: C_4  and  O_5
REMARK    2  A    between atoms: O_5  and  C_6
REMARK                            x       y       z     vdW  Elec       q    Type
REMARK                         _______ _______ _______ _____ _____    ______ ____
ROOT
ATOM      1  C   UNL     1      26.811  23.183  26.622  0.00  0.00    +0.000 A 
ATOM      2  C   UNL     1      25.732  23.934  26.201  0.00  0.00    +0.000 A 
ATOM      3  C   UNL     1      25.055  24.783  27.042  0.00  0.00    +0.000 A 
ATOM      4  C   UNL     1      25.444  24.913  28.358  0.00  0.00    +0.000 A 
ATOM      5  C   UNL     1      26.523  24.165  28.790  0.00  0.00    +0.000 A 
ATOM      6  C   UNL     1      27.206  23.310  27.947  0.00  0.00    +0.000 A 
ATOM      7  O   UNL     1      28.252  22.683  28.651  0.00  0.00    +0.000 OA
ATOM      8  C   UNL     1      27.819  22.668  30.003  0.00  0.00    +0.000 C 
ATOM      9  C   UNL     1      26.713  21.650  30.191  0.00  0.00    +0.000 C 
ATOM     10  C   UNL     1      28.929  22.504  30.985  0.00  0.00    +0.000 C 
ATOM     11  C   UNL     1      27.213  24.052  30.127  0.00  0.00    +0.000 C 
ENDROOT
BRANCH   1  12
ATOM     12  O   UNL     1      27.492  22.321  25.755  0.00  0.00    +0.000 OA
BRANCH  12  16
ATOM     13  C   UNL     1      32.126  23.934  25.225  0.00  0.00    +0.000 C 
ATOM     14  C   UNL     1      30.759  23.661  24.695  0.00  0.00    +0.000 A 
ATOM     15  C   UNL     1      29.770  23.114  25.494  0.00  0.00    +0.000 A 
ATOM     16  C   UNL     1      28.510  22.870  24.976  0.00  0.00    +0.000 A 
ATOM     17  N   UNL     1      28.309  23.189  23.670  0.00  0.00    +0.000 NA
ATOM     18  C   UNL     1      29.274  23.716  22.908  0.00  0.00    +0.000 A 
ATOM     19  N   UNL     1      29.074  24.057  21.534  0.00  0.00    +0.000 NA
ATOM     20  N   UNL     1      30.491  23.947  23.428  0.00  0.00    +0.000 NA
ENDBRANCH  12  16
ENDBRANCH   1  12
TORSDOF 2
ENDMDL
MODEL 2
REMARK VINA RESULT:      -6.5     17.430     19.341
REMARK  Name = 
REMARK  2 active torsions:
REMARK  status: ('A' for Active; 'I' for Inactive)
REMARK    1  A    between atoms: C_4  and  O_5
REMARK    2  A    between atoms: O_5  and  C_6
REMARK                            x       y       z     vdW  Elec       q    Type
REMARK                         _______ _______ _______ _____ _____    ______ ____
ROOT
ATOM      1  C   UNL     1      18.553   9.623  37.701  0.00  0.00    +0.000 A 
ATOM      2  C   UNL     1      18.657   9.204  39.012  0.00  0.00    +0.000 A 
ATOM      3  C   UNL     1      17.646   9.385  39.923  0.00  0.00    +0.000 A 
ATOM      4  C   UNL     1      16.473  10.004  39.546  0.00  0.00    +0.000 A 
ATOM      5  C   UNL     1      16.359  10.428  38.236  0.00  0.00    +0.000 A 
ATOM      6  C   UNL     1      17.373  10.247  37.316  0.00  0.00    +0.000 A 
ATOM      7  O   UNL     1      16.984  10.773  36.069  0.00  0.00    +0.000 OA
ATOM      8  C   UNL     1      16.050  11.794  36.384  0.00  0.00    +0.000 C 
ATOM      9  C   UNL     1      16.759  12.994  36.978  0.00  0.00    +0.000 C 
ATOM     10  C   UNL     1      15.154  12.156  35.248  0.00  0.00    +0.000 C 
ATOM     11  C   UNL     1      15.252  11.125  37.484  0.00  0.00    +0.000 C 
ENDROOT
BRANCH   1  12
ATOM     12  O   UNL     1      19.591   9.432  36.781  0.00  0.00    +0.000 OA
BRANCH  12  16
ATOM     13  C   UNL     1      24.439  10.007  36.057  0.00  0.00    +0.000 C 
ATOM     14  C   UNL     1      23.144  10.408  36.681  0.00  0.00    +0.000 A 
ATOM     15  C   UNL     1      21.975   9.715  36.426  0.00  0.00    +0.000 A 
ATOM     16  C   UNL     1      20.787  10.110  37.017  0.00  0.00    +0.000 A 
ATOM     17  N   UNL     1      20.839  11.191  37.839  0.00  0.00    +0.000 NA
ATOM     18  C   UNL     1      21.976  11.853  38.077  0.00  0.00    +0.000 A 
ATOM     19  N   UNL     1      22.043  12.990  38.939  0.00  0.00    +0.000 NA
ATOM     20  N   UNL     1      23.120  11.455  37.494  0.00  0.00    +0.000 NA
ENDBRANCH  12  16
ENDBRANCH   1  12
TORSDOF 2
ENDMDL
MODEL 3
REMARK VINA RESULT:      -6.4      2.225      4.442
REMARK  Name = 
REMARK  2 active torsions:
REMARK  status: ('A' for Active; 'I' for Inactive)
REMARK    1  A    between atoms: C_4  and  O_5
REMARK    2  A    between atoms: O_5  and  C_6
REMARK                            x       y       z     vdW  Elec       q    Type
REMARK                         _______ _______ _______ _____ _____    ______ ____
ROOT
ATOM      1  C   UNL     1      29.096  22.998  23.991  0.00  0.00    +0.000 A 
ATOM      2  C   UNL     1      30.443  22.742  24.146  0.00  0.00    +0.000 A 
ATOM      3  C   UNL     1      31.029  22.611  25.381  0.00  0.00    +0.000 A 
ATOM      4  C   UNL     1      30.271  22.734  26.525  0.00  0.00    +0.000 A 
ATOM      5  C   UNL     1      28.921  22.992  26.382  0.00  0.00    +0.000 A 
ATOM      6  C   UNL     1      28.328  23.124  25.141  0.00  0.00    +0.000 A 
ATOM      7  O   UNL     1      26.952  23.382  25.296  0.00  0.00    +0.000 OA
ATOM      8  C   UNL     1      26.844  24.016  26.561  0.00  0.00    +0.000 C 
ATOM      9  C   UNL     1      27.381  25.430  26.490  0.00  0.00    +0.000 C 
ATOM     10  C   UNL     1      25.476  23.946  27.150  0.00  0.00    +0.000 C 
ATOM     11  C   UNL     1      27.809  23.185  27.383  0.00  0.00    +0.000 C 
ENDROOT
BRANCH   1  12
ATOM     12  O   UNL     1      28.511  23.130  22.726  0.00  0.00    +0.000 OA
BRANCH  12  16
ATOM     13  C   UNL     1      26.797  27.754  22.537  0.00  0.00    +0.000 C 
ATOM     14  C   UNL     1      27.678  26.656  22.044  0.00  0.00    +0.000 A 
ATOM     15  C   UNL     1      27.668  25.404  22.632  0.00  0.00    +0.000 A 
ATOM     16  C   UNL     1      28.498  24.403  22.156  0.00  0.00    +0.000 A 
ATOM     17  N   UNL     1      29.301  24.717  21.105  0.00  0.00    +0.000 NA
ATOM     18  C   UNL     1      29.301  25.933  20.546  0.00  0.00    +0.000 A 
ATOM     19  N   UNL     1      30.141  26.275  19.442  0.00  0.00    +0.000 NA
ATOM     20  N   UNL     1      28.489  26.892  21.022  0.00  0.00    +0.000 NA
ENDBRANCH  12  16
ENDBRANCH   1  12
TORSDOF 2
ENDMDL
MODEL 4
REMARK VINA RESULT:      -6.3     27.322     29.117
REMARK  Name = 
REMARK  2 active torsions:
REMARK  status: ('A' for Active; 'I' for Inactive)
REMARK    1  A    between atoms: C_4  and  O_5
REMARK    2  A    between atoms: O_5  and  C_6
REMARK                            x       y       z     vdW  Elec       q    Type
REMARK                         _______ _______ _______ _____ _____    ______ ____
ROOT
ATOM      1  C   UNL     1      34.005  -4.729  33.703  0.00  0.00    +0.000 A 
ATOM      2  C   UNL     1      34.977  -5.107  34.607  0.00  0.00    +0.000 A 
ATOM      3  C   UNL     1      36.057  -5.874  34.247  0.00  0.00    +0.000 A 
ATOM      4  C   UNL     1      36.205  -6.297  32.944  0.00  0.00    +0.000 A 
ATOM      5  C   UNL     1      35.238  -5.925  32.029  0.00  0.00    +0.000 A 
ATOM      6  C   UNL     1      34.150  -5.153  32.388  0.00  0.00    +0.000 A 
ATOM      7  O   UNL     1      33.333  -4.928  31.262  0.00  0.00    +0.000 OA
ATOM      8  C   UNL     1      33.571  -6.043  30.417  0.00  0.00    +0.000 C 
ATOM      9  C   UNL     1      32.917  -7.286  30.986  0.00  0.00    +0.000 C 
ATOM     10  C   UNL     1      33.208  -5.801  28.991  0.00  0.00    +0.000 C 
ATOM     11  C   UNL     1      35.072  -6.195  30.554  0.00  0.00    +0.000 C 
ENDROOT
BRANCH   1  12
ATOM     12  O   UNL     1      32.908  -3.946  34.083  0.00  0.00    +0.000 OA
BRANCH  12  16
ATOM     13  C   UNL     1      34.324   0.539  32.586  0.00  0.00    +0.000 C 
ATOM     14  C   UNL     1      33.828  -0.405  33.630  0.00  0.00    +0.000 A 
ATOM     15  C   UNL     1      33.604  -1.741  33.347  0.00  0.00    +0.000 A 
ATOM     16  C   UNL     1      33.143  -2.595  34.335  0.00  0.00    +0.000 A 
ATOM     17  N   UNL     1      32.930  -2.056  35.564  0.00  0.00    +0.000 NA
ATOM     18  C   UNL     1      33.149  -0.762  35.824  0.00  0.00    +0.000 A 
ATOM     19  N   UNL     1      32.928  -0.184  37.112  0.00  0.00    +0.000 NA
ATOM     20  N   UNL     1      33.597   0.052  34.853  0.00  0.00    +0.000 NA
ENDBRANCH  12  16
ENDBRANCH   1  12
TORSDOF 2
ENDMDL
MODEL 5
REMARK VINA RESULT:      -6.3      3.035      5.672
REMARK  Name = 
REMARK  2 active torsions:
REMARK  status: ('A' for Active; 'I' for Inactive)
REMARK    1  A    between atoms: C_4  and  O_5
REMARK    2  A    between atoms: O_5  and  C_6
REMARK                            x       y       z     vdW  Elec       q    Type
REMARK                         _______ _______ _______ _____ _____    ______ ____
ROOT
ATOM      1  C   UNL     1      27.170  24.232  26.402  0.00  0.00    +0.000 A 
ATOM      2  C   UNL     1      25.890  24.119  25.896  0.00  0.00    +0.000 A 
ATOM      3  C   UNL     1      25.636  23.609  24.647  0.00  0.00    +0.000 A 
ATOM      4  C   UNL     1      26.674  23.185  23.846  0.00  0.00    +0.000 A 
ATOM      5  C   UNL     1      27.959  23.293  24.342  0.00  0.00    +0.000 A 
ATOM      6  C   UNL     1      28.219  23.806  25.598  0.00  0.00    +0.000 A 
ATOM      7  O   UNL     1      29.607  23.797  25.838  0.00  0.00    +0.000 OA
ATOM      8  C   UNL     1      30.196  23.882  24.550  0.00  0.00    +0.000 C 
ATOM      9  C   UNL     1      30.025  25.276  23.982  0.00  0.00    +0.000 C 
ATOM     10  C   UNL     1      31.610  23.410  24.507  0.00  0.00    +0.000 C 
ATOM     11  C   UNL     1      29.307  22.939  23.764  0.00  0.00    +0.000 C 
ENDROOT
BRANCH   1  12
ATOM     12  O   UNL     1      27.415  24.754  27.677  0.00  0.00    +0.000 OA
BRANCH  12  16
ATOM     13  C   UNL     1      30.437  22.499  30.862  0.00  0.00    +0.000 C 
ATOM     14  C   UNL     1      29.089  22.733  30.267  0.00  0.00    +0.000 A 
ATOM     15  C   UNL     1      28.901  23.645  29.244  0.00  0.00    +0.000 A 
ATOM     16  C   UNL     1      27.639  23.843  28.710  0.00  0.00    +0.000 A 
ATOM     17  N   UNL     1      26.625  23.108  29.238  0.00  0.00    +0.000 NA
ATOM     18  C   UNL     1      26.820  22.231  30.228  0.00  0.00    +0.000 A 
ATOM     19  N   UNL     1      25.762  21.452  30.792  0.00  0.00    +0.000 NA
ATOM     20  N   UNL     1      28.052  22.051  30.734  0.00  0.00    +0.000 NA
ENDBRANCH  12  16
ENDBRANCH   1  12
TORSDOF 2
ENDMDL
MODEL 6
REMARK VINA RESULT:      -6.3      2.133      3.316
REMARK  Name = 
REMARK  2 active torsions:
REMARK  status: ('A' for Active; 'I' for Inactive)
REMARK    1  A    between atoms: C_4  and  O_5
REMARK    2  A    between atoms: O_5  and  C_6
REMARK                            x       y       z     vdW  Elec       q    Type
REMARK                         _______ _______ _______ _____ _____    ______ ____
ROOT
ATOM      1  C   UNL     1      27.192  24.610  26.981  0.00  0.00    +0.000 A 
ATOM      2  C   UNL     1      26.089  24.174  27.688  0.00  0.00    +0.000 A 
ATOM      3  C   UNL     1      26.195  23.350  28.780  0.00  0.00    +0.000 A 
ATOM      4  C   UNL     1      27.433  22.925  29.212  0.00  0.00    +0.000 A 
ATOM      5  C   UNL     1      28.545  23.354  28.511  0.00  0.00    +0.000 A 
ATOM      6  C   UNL     1      28.442  24.184  27.411  0.00  0.00    +0.000 A 
ATOM      7  O   UNL     1      29.725  24.458  26.900  0.00  0.00    +0.000 OA
ATOM      8  C   UNL     1      30.509  23.335  27.273  0.00  0.00    +0.000 C 
ATOM      9  C   UNL     1      30.133  22.128  26.438  0.00  0.00    +0.000 C 
ATOM     10  C   UNL     1      31.976  23.603  27.273  0.00  0.00    +0.000 C 
ATOM     11  C   UNL     1      30.021  23.100  28.688  0.00  0.00    +0.000 C 
ENDROOT
BRANCH   1  12
ATOM     12  O   UNL     1      27.070  25.450  25.868  0.00  0.00    +0.000 OA
BRANCH  12  16
ATOM     13  C   UNL     1      29.273  24.661  21.522  0.00  0.00    +0.000 C 
ATOM     14  C   UNL     1      28.155  24.454  22.488  0.00  0.00    +0.000 A 
ATOM     15  C   UNL     1      28.153  25.062  23.731  0.00  0.00    +0.000 A 
ATOM     16  C   UNL     1      27.103  24.852  24.608  0.00  0.00    +0.000 A 
ATOM     17  N   UNL     1      26.102  24.035  24.185  0.00  0.00    +0.000 NA
ATOM     18  C   UNL     1      26.116  23.453  22.981  0.00  0.00    +0.000 A 
ATOM     19  N   UNL     1      25.070  22.593  22.526  0.00  0.00    +0.000 NA
ATOM     20  N   UNL     1      27.144  23.668  22.143  0.00  0.00    +0.000 NA
ENDBRANCH  12  16
ENDBRANCH   1  12
TORSDOF 2
ENDMDL
MODEL 7
REMARK VINA RESULT:      -6.3      1.817      3.341
REMARK  Name = 
REMARK  2 active torsions:
REMARK  status: ('A' for Active; 'I' for Inactive)
REMARK    1  A    between atoms: C_4  and  O_5
REMARK    2  A    between atoms: O_5  and  C_6
REMARK                            x       y       z     vdW  Elec       q    Type
REMARK                         _______ _______ _______ _____ _____    ______ ____
ROOT
ATOM      1  C   UNL     1      28.831  22.509  26.414  0.00  0.00    +0.000 A 
ATOM      2  C   UNL     1      30.184  22.261  26.288  0.00  0.00    +0.000 A 
ATOM      3  C   UNL     1      31.044  22.320  27.357  0.00  0.00    +0.000 A 
ATOM      4  C   UNL     1      30.571  22.633  28.613  0.00  0.00    +0.000 A 
ATOM      5  C   UNL     1      29.219  22.884  28.750  0.00  0.00    +0.000 A 
ATOM      6  C   UNL     1      28.350  22.826  27.677  0.00  0.00    +0.000 A 
ATOM      7  O   UNL     1      27.042  23.124  28.107  0.00  0.00    +0.000 OA
ATOM      8  C   UNL     1      27.218  23.952  29.247  0.00  0.00    +0.000 C 
ATOM      9  C   UNL     1      27.689  25.330  28.830  0.00  0.00    +0.000 C 
ATOM     10  C   UNL     1      26.026  23.995  30.143  0.00  0.00    +0.000 C 
ATOM     11  C   UNL     1      28.366  23.249  29.940  0.00  0.00    +0.000 C 
ENDROOT
BRANCH   1  12
ATOM     12  O   UNL     1      27.965  22.446  25.316  0.00  0.00    +0.000 OA
BRANCH  12  16
ATOM     13  C   UNL     1      26.719  26.988  23.841  0.00  0.00    +0.000 C 
ATOM     14  C   UNL     1      27.435  25.693  23.653  0.00  0.00    +0.000 A 
ATOM     15  C   UNL     1      27.352  24.679  24.591  0.00  0.00    +0.000 A 
ATOM     16  C   UNL     1      28.028  23.488  24.391  0.00  0.00    +0.000 A 
ATOM     17  N   UNL     1      28.758  23.378  23.249  0.00  0.00    +0.000 NA
ATOM     18  C   UNL     1      28.830  24.366  22.351  0.00  0.00    +0.000 A 
ATOM     19  N   UNL     1      29.594  24.262  21.148  0.00  0.00    +0.000 NA
ATOM     20  N   UNL     1      28.167  25.516  22.562  0.00  0.00    +0.000 NA
ENDBRANCH  12  16
ENDBRANCH   1  12
TORSDOF 2
ENDMDL
MODEL 8
REMARK VINA RESULT:      -6.3      2.995      5.500
REMARK  Name = 
REMARK  2 active torsions:
REMARK  status: ('A' for Active; 'I' for Inactive)
REMARK    1  A    between atoms: C_4  and  O_5
REMARK    2  A    between atoms: O_5  and  C_6
REMARK                            x       y       z     vdW  Elec       q    Type
REMARK                         _______ _______ _______ _____ _____    ______ ____
ROOT
ATOM      1  C   UNL     1      26.993  23.201  24.705  0.00  0.00    +0.000 A 
ATOM      2  C   UNL     1      26.850  23.710  23.429  0.00  0.00    +0.000 A 
ATOM      3  C   UNL     1      27.922  23.908  22.594  0.00  0.00    +0.000 A 
ATOM      4  C   UNL     1      29.197  23.598  23.014  0.00  0.00    +0.000 A 
ATOM      5  C   UNL     1      29.352  23.089  24.290  0.00  0.00    +0.000 A 
ATOM      6  C   UNL     1      28.276  22.888  25.133  0.00  0.00    +0.000 A 
ATOM      7  O   UNL     1      28.725  22.363  26.360  0.00  0.00    +0.000 OA
ATOM      8  C   UNL     1      30.059  22.832  26.486  0.00  0.00    +0.000 C 
ATOM      9  C   UNL     1      30.069  24.314  26.802  0.00  0.00    +0.000 C 
ATOM     10  C   UNL     1      30.886  22.033  27.435  0.00  0.00    +0.000 C 
ATOM     11  C   UNL     1      30.565  22.647  25.070  0.00  0.00    +0.000 C 
ENDROOT
BRANCH   1  12
ATOM     12  O   UNL     1      25.892  23.004  25.547  0.00  0.00    +0.000 OA
BRANCH  12  16
ATOM     13  C   UNL     1      24.676  27.547  27.045  0.00  0.00    +0.000 C 
ATOM     14  C   UNL     1      25.100  26.141  27.313  0.00  0.00    +0.000 A 
ATOM     15  C   UNL     1      25.295  25.238  26.284  0.00  0.00    +0.000 A 
ATOM     16  C   UNL     1      25.687  23.939  26.561  0.00  0.00    +0.000 A 
ATOM     17  N   UNL     1      25.864  23.616  27.870  0.00  0.00    +0.000 NA
ATOM     18  C   UNL     1      25.672  24.499  28.855  0.00  0.00    +0.000 A 
ATOM     19  N   UNL     1      25.855  24.171  30.234  0.00  0.00    +0.000 NA
ATOM     20  N   UNL     1      25.291  25.755  28.567  0.00  0.00    +0.000 NA
ENDBRANCH  12  16
ENDBRANCH   1  12
TORSDOF 2
ENDMDL
MODEL 9
REMARK VINA RESULT:      -6.2      2.880      6.465
REMARK  Name = 
REMARK  2 active torsions:
REMARK  status: ('A' for Active; 'I' for Inactive)
REMARK    1  A    between atoms: C_4  and  O_5
REMARK    2  A    between atoms: O_5  and  C_6
REMARK                            x       y       z     vdW  Elec       q    Type
REMARK                         _______ _______ _______ _____ _____    ______ ____
ROOT
ATOM      1  C   UNL     1      28.207  22.972  25.662  0.00  0.00    +0.000 A 
ATOM      2  C   UNL     1      29.273  22.313  26.242  0.00  0.00    +0.000 A 
ATOM      3  C   UNL     1      30.575  22.575  25.893  0.00  0.00    +0.000 A 
ATOM      4  C   UNL     1      30.861  23.523  24.935  0.00  0.00    +0.000 A 
ATOM      5  C   UNL     1      29.801  24.187  24.347  0.00  0.00    +0.000 A 
ATOM      6  C   UNL     1      28.490  23.927  24.695  0.00  0.00    +0.000 A 
ATOM      7  O   UNL     1      27.626  24.746  23.942  0.00  0.00    +0.000 OA
ATOM      8  C   UNL     1      28.339  25.017  22.745  0.00  0.00    +0.000 C 
ATOM      9  C   UNL     1      28.384  23.784  21.866  0.00  0.00    +0.000 C 
ATOM     10  C   UNL     1      27.853  26.226  22.020  0.00  0.00    +0.000 C 
ATOM     11  C   UNL     1      29.732  25.260  23.289  0.00  0.00    +0.000 C 
ENDROOT
BRANCH   1  12
ATOM     12  O   UNL     1      26.884  22.695  26.026  0.00  0.00    +0.000 OA
BRANCH  12  16
ATOM     13  C   UNL     1      24.222  26.546  27.590  0.00  0.00    +0.000 C 
ATOM     14  C   UNL     1      25.041  25.324  27.838  0.00  0.00    +0.000 A 
ATOM     15  C   UNL     1      25.575  24.589  26.795  0.00  0.00    +0.000 A 
ATOM     16  C   UNL     1      26.331  23.458  27.055  0.00  0.00    +0.000 A 
ATOM     17  N   UNL     1      26.510  23.124  28.360  0.00  0.00    +0.000 NA
ATOM     18  C   UNL     1      25.987  23.843  29.359  0.00  0.00    +0.000 A 
ATOM     19  N   UNL     1      26.169  23.501  30.735  0.00  0.00    +0.000 NA
ATOM     20  N   UNL     1      25.256  24.938  29.088  0.00  0.00    +0.000 NA
ENDBRANCH  12  16
ENDBRANCH   1  12
TORSDOF 2
ENDMDL
MODEL 10
REMARK VINA RESULT:      -6.1      3.522      5.779
REMARK  Name = 
REMARK  2 active torsions:
REMARK  status: ('A' for Active; 'I' for Inactive)
REMARK    1  A    between atoms: C_4  and  O_5
REMARK    2  A    between atoms: O_5  and  C_6
REMARK                            x       y       z     vdW  Elec       q    Type
REMARK                         _______ _______ _______ _____ _____    ______ ____
ROOT
ATOM      1  C   UNL     1      29.208  22.886  24.491  0.00  0.00    +0.000 A 
ATOM      2  C   UNL     1      28.203  22.637  25.404  0.00  0.00    +0.000 A 
ATOM      3  C   UNL     1      26.933  23.138  25.252  0.00  0.00    +0.000 A 
ATOM      4  C   UNL     1      26.620  23.919  24.161  0.00  0.00    +0.000 A 
ATOM      5  C   UNL     1      27.619  24.175  23.241  0.00  0.00    +0.000 A 
ATOM      6  C   UNL     1      28.898  23.673  23.390  0.00  0.00    +0.000 A 
ATOM      7  O   UNL     1      29.701  24.091  22.311  0.00  0.00    +0.000 OA
ATOM      8  C   UNL     1      29.118  25.310  21.878  0.00  0.00    +0.000 C 
ATOM      9  C   UNL     1      29.402  26.414  22.875  0.00  0.00    +0.000 C 
ATOM     10  C   UNL     1      29.483  25.684  20.481  0.00  0.00    +0.000 C 
ATOM     11  C   UNL     1      27.644  24.968  21.958  0.00  0.00    +0.000 C 
ENDROOT
BRANCH   1  12
ATOM     12  O   UNL     1      30.499  22.370  24.657  0.00  0.00    +0.000 OA
BRANCH  12  16
ATOM     13  C   UNL     1      34.282  25.540  24.713  0.00  0.00    +0.000 C 
ATOM     14  C   UNL     1      33.258  24.699  25.400  0.00  0.00    +0.000 A 
ATOM     15  C   UNL     1      32.359  23.929  24.685  0.00  0.00    +0.000 A 
ATOM     16  C   UNL     1      31.419  23.158  25.348  0.00  0.00    +0.000 A 
ATOM     17  N   UNL     1      31.434  23.204  26.706  0.00  0.00    +0.000 NA
ATOM     18  C   UNL     1      32.308  23.954  27.386  0.00  0.00    +0.000 A 
ATOM     19  N   UNL     1      32.333  24.010  28.813  0.00  0.00    +0.000 NA
ATOM     20  N   UNL     1      33.213  24.695  26.725  0.00  0.00    +0.000 NA
ENDBRANCH  12  16
ENDBRANCH   1  12
TORSDOF 2
ENDMDL
