MODEL 1
REMARK VINA RESULT:      -6.4      0.000      0.000
REMARK  Name = 
REMARK  2 active torsions:
REMARK  status: ('A' for Active; 'I' for Inactive)
REMARK    1  A    between atoms: C_5  and  C_6
REMARK    2  A    between atoms: C_6  and  C_7
REMARK                            x       y       z     vdW  Elec       q    Type
REMARK                         _______ _______ _______ _____ _____    ______ ____
ROOT
ATOM      1  C   UNL     1      18.983  10.401  37.742  0.00  0.00    +0.000 C 
ATOM      2  C   UNL     1      19.154  11.782  38.377  0.00  0.00    +0.000 C 
ATOM      3  C   UNL     1      20.454  11.554  39.162  0.00  0.00    +0.000 C 
ATOM      4  C   UNL     1      21.328  10.952  38.057  0.00  0.00    +0.000 C 
ATOM      5  C   UNL     1      20.413   9.948  37.440  0.00  0.00    +0.000 C 
ENDROOT
BRANCH   1  10
ATOM      6  O   UNL     1      16.504   7.429  41.810  0.00  0.00    +0.000 OA
ATOM      7  C   UNL     1      17.149   8.114  40.811  0.00  0.00    +0.000 A 
ATOM      8  C   UNL     1      16.621   9.327  40.418  0.00  0.00    +0.000 A 
ATOM      9  C   UNL     1      17.246  10.037  39.419  0.00  0.00    +0.000 A 
ATOM     10  C   UNL     1      18.394   9.537  38.813  0.00  0.00    +0.000 A 
ATOM     11  C   UNL     1      18.933   8.346  39.184  0.00  0.00    +0.000 A 
ATOM     12  C   UNL     1      18.295   7.639  40.192  0.00  0.00    +0.000 A 
ENDBRANCH   1  10
BRANCH   1  13
ATOM     13  C   UNL     1      18.153  10.418  36.536  0.00  0.00    +0.000 A 
ATOM     14  C   UNL     1      18.156   9.351  35.640  0.00  0.00    +0.000 A 
ATOM     15  C   UNL     1      17.359   9.389  34.504  0.00  0.00    +0.000 A 
ATOM     16  C   UNL     1      16.545  10.464  34.216  0.00  0.00    +0.000 A 
ATOM     17  O   UNL     1      15.769  10.445  33.060  0.00  0.00    +0.000 OA
ATOM     18  C   UNL     1      16.545  11.519  35.106  0.00  0.00    +0.000 A 
ATOM     19  C   UNL     1      17.340  11.488  36.245  0.00  0.00    +0.000 A 
ENDBRANCH   1  13
TORSDOF 2
ENDMDL
MODEL 2
REMARK VINA RESULT:      -6.3      0.550      5.306
REMARK  Name = 
REMARK  2 active torsions:
REMARK  status: ('A' for Active; 'I' for Inactive)
REMARK    1  A    between atoms: C_5  and  C_6
REMARK    2  A    between atoms: C_6  and  C_7
REMARK                            x       y       z     vdW  Elec       q    Type
REMARK                         _______ _______ _______ _____ _____    ______ ____
ROOT
ATOM      1  C   UNL     1      18.952  10.192  38.249  0.00  0.00    +0.000 C 
ATOM      2  C   UNL     1      20.277   9.538  37.855  0.00  0.00    +0.000 C 
ATOM      3  C   UNL     1      21.034  10.769  37.335  0.00  0.00    +0.000 C 
ATOM      4  C   UNL     1      20.813  11.731  38.507  0.00  0.00    +0.000 C 
ATOM      5  C   UNL     1      19.355  11.569  38.779  0.00  0.00    +0.000 C 
ENDROOT
BRANCH   1  10
ATOM      6  O   UNL     1      16.174  10.407  33.374  0.00  0.00    +0.000 OA
ATOM      7  C   UNL     1      16.837  10.408  34.576  0.00  0.00    +0.000 A 
ATOM      8  C   UNL     1      17.486   9.250  34.954  0.00  0.00    +0.000 A 
ATOM      9  C   UNL     1      18.160   9.222  36.153  0.00  0.00    +0.000 A 
ATOM     10  C   UNL     1      18.185  10.345  36.973  0.00  0.00    +0.000 A 
ATOM     11  C   UNL     1      17.553  11.497  36.622  0.00  0.00    +0.000 A 
ATOM     12  C   UNL     1      16.878  11.514  35.411  0.00  0.00    +0.000 A 
ENDBRANCH   1  10
BRANCH   1  13
ATOM     13  C   UNL     1      18.203   9.425  39.247  0.00  0.00    +0.000 A 
ATOM     14  C   UNL     1      17.021   9.914  39.799  0.00  0.00    +0.000 A 
ATOM     15  C   UNL     1      16.328   9.167  40.743  0.00  0.00    +0.000 A 
ATOM     16  C   UNL     1      16.770   7.932  41.168  0.00  0.00    +0.000 A 
ATOM     17  O   UNL     1      16.032   7.231  42.118  0.00  0.00    +0.000 OA
ATOM     18  C   UNL     1      17.942   7.452  40.619  0.00  0.00    +0.000 A 
ATOM     19  C   UNL     1      18.640   8.193  39.675  0.00  0.00    +0.000 A 
ENDBRANCH   1  13
TORSDOF 2
ENDMDL
MODEL 3
REMARK VINA RESULT:      -6.2     18.201     19.994
REMARK  Name = 
REMARK  2 active torsions:
REMARK  status: ('A' for Active; 'I' for Inactive)
REMARK    1  A    between atoms: C_5  and  C_6
REMARK    2  A    between atoms: C_6  and  C_7
REMARK                            x       y       z     vdW  Elec       q    Type
REMARK                         _______ _______ _______ _____ _____    ______ ____
ROOT
ATOM      1  C   UNL     1      28.766  23.251  26.749  0.00  0.00    +0.000 C 
ATOM      2  C   UNL     1      29.819  24.360  26.759  0.00  0.00    +0.000 C 
ATOM      3  C   UNL     1      30.810  23.775  27.776  0.00  0.00    +0.000 C 
ATOM      4  C   UNL     1      30.984  22.367  27.197  0.00  0.00    +0.000 C 
ATOM      5  C   UNL     1      29.576  21.963  26.916  0.00  0.00    +0.000 C 
ENDROOT
BRANCH   1  10
ATOM      6  O   UNL     1      25.622  24.494  31.232  0.00  0.00    +0.000 OA
ATOM      7  C   UNL     1      26.389  24.135  30.152  0.00  0.00    +0.000 A 
ATOM      8  C   UNL     1      26.786  25.133  29.285  0.00  0.00    +0.000 A 
ATOM      9  C   UNL     1      27.555  24.803  28.193  0.00  0.00    +0.000 A 
ATOM     10  C   UNL     1      27.928  23.482  27.967  0.00  0.00    +0.000 A 
ATOM     11  C   UNL     1      27.550  22.483  28.807  0.00  0.00    +0.000 A 
ATOM     12  C   UNL     1      26.775  22.826  29.904  0.00  0.00    +0.000 A 
ENDBRANCH   1  10
BRANCH   1  13
ATOM     13  C   UNL     1      27.960  23.230  25.527  0.00  0.00    +0.000 A 
ATOM     14  C   UNL     1      28.536  23.445  24.276  0.00  0.00    +0.000 A 
ATOM     15  C   UNL     1      27.751  23.418  23.131  0.00  0.00    +0.000 A 
ATOM     16  C   UNL     1      26.393  23.182  23.179  0.00  0.00    +0.000 A 
ATOM     17  O   UNL     1      25.659  23.168  21.995  0.00  0.00    +0.000 OA
ATOM     18  C   UNL     1      25.828  22.970  24.419  0.00  0.00    +0.000 A 
ATOM     19  C   UNL     1      26.606  22.995  25.570  0.00  0.00    +0.000 A 
ENDBRANCH   1  13
TORSDOF 2
ENDMDL
MODEL 4
REMARK VINA RESULT:      -6.2     19.095     21.370
REMARK  Name = 
REMARK  2 active torsions:
REMARK  status: ('A' for Active; 'I' for Inactive)
REMARK    1  A    between atoms: C_5  and  C_6
REMARK    2  A    between atoms: C_6  and  C_7
REMARK                            x       y       z     vdW  Elec       q    Type
REMARK                         _______ _______ _______ _____ _____    ______ ____
ROOT
ATOM      1  C   UNL     1      27.393  23.786  25.383  0.00  0.00    +0.000 C 
ATOM      2  C   UNL     1      26.931  25.123  24.803  0.00  0.00    +0.000 C 
ATOM      3  C   UNL     1      26.880  24.760  23.311  0.00  0.00    +0.000 C 
ATOM      4  C   UNL     1      26.056  23.471  23.380  0.00  0.00    +0.000 C 
ATOM      5  C   UNL     1      26.707  22.738  24.505  0.00  0.00    +0.000 C 
ENDROOT
BRANCH   1  10
ATOM      6  O   UNL     1      32.960  23.981  24.677  0.00  0.00    +0.000 OA
ATOM      7  C   UNL     1      31.600  23.880  24.830  0.00  0.00    +0.000 A 
ATOM      8  C   UNL     1      30.927  24.971  25.340  0.00  0.00    +0.000 A 
ATOM      9  C   UNL     1      29.562  24.899  25.504  0.00  0.00    +0.000 A 
ATOM     10  C   UNL     1      28.873  23.741  25.161  0.00  0.00    +0.000 A 
ATOM     11  C   UNL     1      29.514  22.654  24.657  0.00  0.00    +0.000 A 
ATOM     12  C   UNL     1      30.888  22.737  24.495  0.00  0.00    +0.000 A 
ENDBRANCH   1  10
BRANCH   1  13
ATOM     13  C   UNL     1      27.047  23.619  26.797  0.00  0.00    +0.000 A 
ATOM     14  C   UNL     1      26.075  24.412  27.403  0.00  0.00    +0.000 A 
ATOM     15  C   UNL     1      25.764  24.234  28.744  0.00  0.00    +0.000 A 
ATOM     16  C   UNL     1      26.389  23.282  29.522  0.00  0.00    +0.000 A 
ATOM     17  O   UNL     1      26.034  23.151  30.862  0.00  0.00    +0.000 OA
ATOM     18  C   UNL     1      27.352  22.499  28.917  0.00  0.00    +0.000 A 
ATOM     19  C   UNL     1      27.669  22.672  27.576  0.00  0.00    +0.000 A 
ENDBRANCH   1  13
TORSDOF 2
ENDMDL
MODEL 5
REMARK VINA RESULT:      -6.1      2.408      4.124
REMARK  Name = 
REMARK  2 active torsions:
REMARK  status: ('A' for Active; 'I' for Inactive)
REMARK    1  A    between atoms: C_5  and  C_6
REMARK    2  A    between atoms: C_6  and  C_7
REMARK                            x       y       z     vdW  Elec       q    Type
REMARK                         _______ _______ _______ _____ _____    ______ ____
ROOT
ATOM      1  C   UNL     1      18.654  10.496  37.457  0.00  0.00    +0.000 C 
ATOM      2  C   UNL     1      19.142   9.518  36.388  0.00  0.00    +0.000 C 
ATOM      3  C   UNL     1      17.795   9.080  35.794  0.00  0.00    +0.000 C 
ATOM      4  C   UNL     1      17.158  10.450  35.544  0.00  0.00    +0.000 C 
ATOM      5  C   UNL     1      17.434  11.167  36.823  0.00  0.00    +0.000 C 
ENDROOT
BRANCH   1  10
ATOM      6  O   UNL     1      16.730   7.543  41.828  0.00  0.00    +0.000 OA
ATOM      7  C   UNL     1      17.243   8.228  40.756  0.00  0.00    +0.000 A 
ATOM      8  C   UNL     1      16.549   9.333  40.305  0.00  0.00    +0.000 A 
ATOM      9  C   UNL     1      17.041  10.040  39.232  0.00  0.00    +0.000 A 
ATOM     10  C   UNL     1      18.221   9.646  38.610  0.00  0.00    +0.000 A 
ATOM     11  C   UNL     1      18.922   8.562  39.037  0.00  0.00    +0.000 A 
ATOM     12  C   UNL     1      18.418   7.857  40.119  0.00  0.00    +0.000 A 
ENDBRANCH   1  10
BRANCH   1  13
ATOM     13  C   UNL     1      19.668  11.476  37.851  0.00  0.00    +0.000 A 
ATOM     14  C   UNL     1      21.016  11.131  37.932  0.00  0.00    +0.000 A 
ATOM     15  C   UNL     1      21.959  12.078  38.306  0.00  0.00    +0.000 A 
ATOM     16  C   UNL     1      21.613  13.378  38.608  0.00  0.00    +0.000 A 
ATOM     17  O   UNL     1      22.605  14.283  38.978  0.00  0.00    +0.000 OA
ATOM     18  C   UNL     1      20.277  13.715  38.527  0.00  0.00    +0.000 A 
ATOM     19  C   UNL     1      19.327  12.773  38.154  0.00  0.00    +0.000 A 
ENDBRANCH   1  13
TORSDOF 2
ENDMDL
MODEL 6
REMARK VINA RESULT:      -6.1     20.117     22.379
REMARK  Name = 
REMARK  2 active torsions:
REMARK  status: ('A' for Active; 'I' for Inactive)
REMARK    1  A    between atoms: C_5  and  C_6
REMARK    2  A    between atoms: C_6  and  C_7
REMARK                            x       y       z     vdW  Elec       q    Type
REMARK                         _______ _______ _______ _____ _____    ______ ____
ROOT
ATOM      1  C   UNL     1      27.863  24.042  25.692  0.00  0.00    +0.000 C 
ATOM      2  C   UNL     1      27.317  25.411  26.098  0.00  0.00    +0.000 C 
ATOM      3  C   UNL     1      25.922  25.340  25.460  0.00  0.00    +0.000 C 
ATOM      4  C   UNL     1      25.454  23.984  25.998  0.00  0.00    +0.000 C 
ATOM      5  C   UNL     1      26.644  23.119  25.755  0.00  0.00    +0.000 C 
ENDROOT
BRANCH   1  10
ATOM      6  O   UNL     1      29.737  24.919  20.473  0.00  0.00    +0.000 OA
ATOM      7  C   UNL     1      29.251  24.659  21.729  0.00  0.00    +0.000 A 
ATOM      8  C   UNL     1      29.638  25.497  22.755  0.00  0.00    +0.000 A 
ATOM      9  C   UNL     1      29.166  25.261  24.026  0.00  0.00    +0.000 A 
ATOM     10  C   UNL     1      28.310  24.193  24.272  0.00  0.00    +0.000 A 
ATOM     11  C   UNL     1      27.914  23.355  23.277  0.00  0.00    +0.000 A 
ATOM     12  C   UNL     1      28.395  23.601  22.001  0.00  0.00    +0.000 A 
ENDBRANCH   1  10
BRANCH   1  13
ATOM     13  C   UNL     1      28.945  23.571  26.559  0.00  0.00    +0.000 A 
ATOM     14  C   UNL     1      29.388  24.328  27.641  0.00  0.00    +0.000 A 
ATOM     15  C   UNL     1      30.415  23.859  28.449  0.00  0.00    +0.000 A 
ATOM     16  C   UNL     1      31.031  22.647  28.222  0.00  0.00    +0.000 A 
ATOM     17  O   UNL     1      32.056  22.231  29.068  0.00  0.00    +0.000 OA
ATOM     18  C   UNL     1      30.589  21.900  27.149  0.00  0.00    +0.000 A 
ATOM     19  C   UNL     1      29.563  22.362  26.336  0.00  0.00    +0.000 A 
ENDBRANCH   1  13
TORSDOF 2
ENDMDL
MODEL 7
REMARK VINA RESULT:      -6.1     19.902     21.764
REMARK  Name = 
REMARK  2 active torsions:
REMARK  status: ('A' for Active; 'I' for Inactive)
REMARK    1  A    between atoms: C_5  and  C_6
REMARK    2  A    between atoms: C_6  and  C_7
REMARK                            x       y       z     vdW  Elec       q    Type
REMARK                         _______ _______ _______ _____ _____    ______ ____
ROOT
ATOM      1  C   UNL     1      27.824  24.198  25.680  0.00  0.00    +0.000 C 
ATOM      2  C   UNL     1      26.700  23.168  25.787  0.00  0.00    +0.000 C 
ATOM      3  C   UNL     1      26.042  23.628  27.096  0.00  0.00    +0.000 C 
ATOM      4  C   UNL     1      25.875  25.122  26.797  0.00  0.00    +0.000 C 
ATOM      5  C   UNL     1      27.209  25.484  26.236  0.00  0.00    +0.000 C 
ENDROOT
BRANCH   1  10
ATOM      6  O   UNL     1      31.865  22.051  28.933  0.00  0.00    +0.000 OA
ATOM      7  C   UNL     1      30.880  22.624  28.169  0.00  0.00    +0.000 A 
ATOM      8  C   UNL     1      30.368  21.886  27.120  0.00  0.00    +0.000 A 
ATOM      9  C   UNL     1      29.378  22.434  26.337  0.00  0.00    +0.000 A 
ATOM     10  C   UNL     1      28.901  23.714  26.599  0.00  0.00    +0.000 A 
ATOM     11  C   UNL     1      29.389  24.459  27.626  0.00  0.00    +0.000 A 
ATOM     12  C   UNL     1      30.386  23.897  28.409  0.00  0.00    +0.000 A 
ENDBRANCH   1  10
BRANCH   1  13
ATOM     13  C   UNL     1      28.313  24.379  24.312  0.00  0.00    +0.000 A 
ATOM     14  C   UNL     1      27.900  23.542  23.277  0.00  0.00    +0.000 A 
ATOM     15  C   UNL     1      28.377  23.735  21.988  0.00  0.00    +0.000 A 
ATOM     16  C   UNL     1      29.264  24.744  21.678  0.00  0.00    +0.000 A 
ATOM     17  O   UNL     1      29.707  24.887  20.366  0.00  0.00    +0.000 OA
ATOM     18  C   UNL     1      29.671  25.571  22.705  0.00  0.00    +0.000 A 
ATOM     19  C   UNL     1      29.198  25.384  23.998  0.00  0.00    +0.000 A 
ENDBRANCH   1  13
TORSDOF 2
ENDMDL
MODEL 8
REMARK VINA RESULT:      -6.0     20.656     22.346
REMARK  Name = 
REMARK  2 active torsions:
REMARK  status: ('A' for Active; 'I' for Inactive)
REMARK    1  A    between atoms: C_5  and  C_6
REMARK    2  A    between atoms: C_6  and  C_7
REMARK                            x       y       z     vdW  Elec       q    Type
REMARK                         _______ _______ _______ _____ _____    ______ ____
ROOT
ATOM      1  C   UNL     1      33.742  -5.464  33.429  0.00  0.00    +0.000 C 
ATOM      2  C   UNL     1      32.892  -6.602  33.993  0.00  0.00    +0.000 C 
ATOM      3  C   UNL     1      33.895  -7.761  33.887  0.00  0.00    +0.000 C 
ATOM      4  C   UNL     1      35.112  -7.120  34.561  0.00  0.00    +0.000 C 
ATOM      5  C   UNL     1      35.158  -5.773  33.920  0.00  0.00    +0.000 C 
ENDROOT
BRANCH   1  10
ATOM      6  O   UNL     1      33.124  -6.057  27.880  0.00  0.00    +0.000 OA
ATOM      7  C   UNL     1      33.331  -5.909  29.228  0.00  0.00    +0.000 A 
ATOM      8  C   UNL     1      32.223  -5.879  30.050  0.00  0.00    +0.000 A 
ATOM      9  C   UNL     1      32.401  -5.732  31.407  0.00  0.00    +0.000 A 
ATOM     10  C   UNL     1      33.679  -5.616  31.941  0.00  0.00    +0.000 A 
ATOM     11  C   UNL     1      34.786  -5.644  31.152  0.00  0.00    +0.000 A 
ATOM     12  C   UNL     1      34.596  -5.792  29.786  0.00  0.00    +0.000 A 
ENDBRANCH   1  10
BRANCH   1  13
ATOM     13  C   UNL     1      33.295  -4.139  33.862  0.00  0.00    +0.000 A 
ATOM     14  C   UNL     1      32.267  -3.989  34.790  0.00  0.00    +0.000 A 
ATOM     15  C   UNL     1      31.862  -2.722  35.187  0.00  0.00    +0.000 A 
ATOM     16  C   UNL     1      32.447  -1.576  34.691  0.00  0.00    +0.000 A 
ATOM     17  O   UNL     1      31.997  -0.333  35.126  0.00  0.00    +0.000 OA
ATOM     18  C   UNL     1      33.465  -1.729  33.771  0.00  0.00    +0.000 A 
ATOM     19  C   UNL     1      33.876  -2.994  33.369  0.00  0.00    +0.000 A 
ENDBRANCH   1  13
TORSDOF 2
ENDMDL
MODEL 9
REMARK VINA RESULT:      -5.9     20.585     21.987
REMARK  Name = 
REMARK  2 active torsions:
REMARK  status: ('A' for Active; 'I' for Inactive)
REMARK    1  A    between atoms: C_5  and  C_6
REMARK    2  A    between atoms: C_6  and  C_7
REMARK                            x       y       z     vdW  Elec       q    Type
REMARK                         _______ _______ _______ _____ _____    ______ ____
ROOT
ATOM      1  C   UNL     1      33.824  -5.459  33.462  0.00  0.00    +0.000 C 
ATOM      2  C   UNL     1      35.287  -5.479  33.905  0.00  0.00    +0.000 C 
ATOM      3  C   UNL     1      35.114  -5.892  35.375  0.00  0.00    +0.000 C 
ATOM      4  C   UNL     1      34.205  -7.113  35.200  0.00  0.00    +0.000 C 
ATOM      5  C   UNL     1      33.182  -6.612  34.236  0.00  0.00    +0.000 C 
ENDROOT
BRANCH   1  10
ATOM      6  O   UNL     1      32.033  -0.390  35.078  0.00  0.00    +0.000 OA
ATOM      7  C   UNL     1      32.430  -1.652  34.715  0.00  0.00    +0.000 A 
ATOM      8  C   UNL     1      33.485  -1.766  33.832  0.00  0.00    +0.000 A 
ATOM      9  C   UNL     1      33.905  -3.020  33.451  0.00  0.00    +0.000 A 
ATOM     10  C   UNL     1      33.275  -4.155  33.948  0.00  0.00    +0.000 A 
ATOM     11  C   UNL     1      32.235  -4.068  34.819  0.00  0.00    +0.000 A 
ATOM     12  C   UNL     1      31.819  -2.800  35.197  0.00  0.00    +0.000 A 
ENDBRANCH   1  10
BRANCH   1  13
ATOM     13  C   UNL     1      33.657  -5.618  32.016  0.00  0.00    +0.000 A 
ATOM     14  C   UNL     1      34.754  -5.648  31.158  0.00  0.00    +0.000 A 
ATOM     15  C   UNL     1      34.569  -5.801  29.791  0.00  0.00    +0.000 A 
ATOM     16  C   UNL     1      33.316  -5.927  29.230  0.00  0.00    +0.000 A 
ATOM     17  O   UNL     1      33.195  -6.077  27.851  0.00  0.00    +0.000 OA
ATOM     18  C   UNL     1      32.232  -5.896  30.083  0.00  0.00    +0.000 A 
ATOM     19  C   UNL     1      32.408  -5.744  31.452  0.00  0.00    +0.000 A 
ENDBRANCH   1  13
TORSDOF 2
ENDMDL
MODEL 10
REMARK VINA RESULT:      -5.7     19.021     20.992
REMARK  Name = 
REMARK  2 active torsions:
REMARK  status: ('A' for Active; 'I' for Inactive)
REMARK    1  A    between atoms: C_5  and  C_6
REMARK    2  A    between atoms: C_6  and  C_7
REMARK                            x       y       z     vdW  Elec       q    Type
REMARK                         _______ _______ _______ _____ _____    ______ ____
ROOT
ATOM      1  C   UNL     1      27.743  23.785  25.544  0.00  0.00    +0.000 C 
ATOM      2  C   UNL     1      27.134  22.657  24.712  0.00  0.00    +0.000 C 
ATOM      3  C   UNL     1      25.686  23.159  24.604  0.00  0.00    +0.000 C 
ATOM      4  C   UNL     1      25.939  24.595  24.134  0.00  0.00    +0.000 C 
ATOM      5  C   UNL     1      27.025  25.044  25.054  0.00  0.00    +0.000 C 
ENDROOT
BRANCH   1  10
ATOM      6  O   UNL     1      26.060  23.028  30.847  0.00  0.00    +0.000 OA
ATOM      7  C   UNL     1      26.501  23.165  29.555  0.00  0.00    +0.000 A 
ATOM      8  C   UNL     1      26.048  24.249  28.831  0.00  0.00    +0.000 A 
ATOM      9  C   UNL     1      26.475  24.413  27.533  0.00  0.00    +0.000 A 
ATOM     10  C   UNL     1      27.351  23.498  26.960  0.00  0.00    +0.000 A 
ATOM     11  C   UNL     1      27.811  22.423  27.653  0.00  0.00    +0.000 A 
ATOM     12  C   UNL     1      27.376  22.267  28.959  0.00  0.00    +0.000 A 
ENDBRANCH   1  10
BRANCH   1  13
ATOM     13  C   UNL     1      29.196  23.896  25.392  0.00  0.00    +0.000 A 
ATOM     14  C   UNL     1      29.899  24.977  25.921  0.00  0.00    +0.000 A 
ATOM     15  C   UNL     1      31.276  25.059  25.765  0.00  0.00    +0.000 A 
ATOM     16  C   UNL     1      31.996  24.094  25.093  0.00  0.00    +0.000 A 
ATOM     17  O   UNL     1      33.376  24.232  24.969  0.00  0.00    +0.000 OA
ATOM     18  C   UNL     1      31.296  23.026  24.571  0.00  0.00    +0.000 A 
ATOM     19  C   UNL     1      29.918  22.937  24.722  0.00  0.00    +0.000 A 
ENDBRANCH   1  13
TORSDOF 2
ENDMDL
