MODEL 1
REMARK VINA RESULT:      -7.3      0.000      0.000
REMARK  Name = 
REMARK  1 active torsions:
REMARK  status: ('A' for Active; 'I' for Inactive)
REMARK    1  A    between atoms: C_5  and  C_6
REMARK                            x       y       z     vdW  Elec       q    Type
REMARK                         _______ _______ _______ _____ _____    ______ ____
ROOT
ATOM      1  C   UNL     1      31.281  22.711  11.570  0.00  0.00    +0.000 C 
ATOM      2  C   UNL     1      31.041  22.234  10.024  0.00  0.00    +0.000 C 
ATOM      3  O   UNL     1      31.367  20.907   9.852  0.00  0.00    +0.000 OA
ATOM      4  C   UNL     1      32.631  20.508  10.238  0.00  0.00    +0.000 A 
ATOM      5  C   UNL     1      33.626  19.986   9.444  0.00  0.00    +0.000 A 
ATOM      6  C   UNL     1      34.834  19.641  10.020  0.00  0.00    +0.000 A 
ATOM      7  O   UNL     1      35.884  19.108   9.284  0.00  0.00    +0.000 OA
ATOM      8  C   UNL     1      35.006  19.831  11.375  0.00  0.00    +0.000 A 
ATOM      9  C   UNL     1      33.986  20.363  12.175  0.00  0.00    +0.000 A 
ATOM     10  C   UNL     1      32.788  20.705  11.598  0.00  0.00    +0.000 A 
ATOM     11  C   UNL     1      31.620  21.258  12.266  0.00  0.00    +0.000 C 
ENDROOT
BRANCH   1  16
ATOM     12  O   UNL     1      25.836  23.048  13.261  0.00  0.00    +0.000 OA
ATOM     13  C   UNL     1      27.159  22.951  12.815  0.00  0.00    +0.000 A 
ATOM     14  C   UNL     1      27.446  22.450  11.581  0.00  0.00    +0.000 A 
ATOM     15  C   UNL     1      28.748  22.360  11.155  0.00  0.00    +0.000 A 
ATOM     16  C   UNL     1      29.729  22.753  11.925  0.00  0.00    +0.000 A 
ATOM     17  C   UNL     1      29.499  23.267  13.176  0.00  0.00    +0.000 A 
ATOM     18  C   UNL     1      28.176  23.370  13.639  0.00  0.00    +0.000 A 
ENDBRANCH   1  16
TORSDOF 1
ENDMDL
MODEL 2
REMARK VINA RESULT:      -7.3      0.912      6.608
REMARK  Name = 
REMARK  1 active torsions:
REMARK  status: ('A' for Active; 'I' for Inactive)
REMARK    1  A    between atoms: C_5  and  C_6
REMARK                            x       y       z     vdW  Elec       q    Type
REMARK                         _______ _______ _______ _____ _____    ______ ____
ROOT
ATOM      1  C   UNL     1      31.173  20.531  12.216  0.00  0.00    +0.000 C 
ATOM      2  C   UNL     1      30.232  20.390  10.886  0.00  0.00    +0.000 C 
ATOM      3  O   UNL     1      29.700  21.605  10.515  0.00  0.00    +0.000 OA
ATOM      4  C   UNL     1      28.997  22.309  11.471  0.00  0.00    +0.000 A 
ATOM      5  C   UNL     1      27.670  22.669  11.442  0.00  0.00    +0.000 A 
ATOM      6  C   UNL     1      27.143  23.382  12.502  0.00  0.00    +0.000 A 
ATOM      7  O   UNL     1      25.813  23.781  12.544  0.00  0.00    +0.000 OA
ATOM      8  C   UNL     1      27.964  23.711  13.560  0.00  0.00    +0.000 A 
ATOM      9  C   UNL     1      29.316  23.340  13.580  0.00  0.00    +0.000 A 
ATOM     10  C   UNL     1      29.833  22.631  12.524  0.00  0.00    +0.000 A 
ATOM     11  C   UNL     1      31.205  22.170  12.367  0.00  0.00    +0.000 C 
ENDROOT
BRANCH   1  16
ATOM     12  O   UNL     1      36.299  20.002   9.753  0.00  0.00    +0.000 OA
ATOM     13  C   UNL     1      35.027  20.128  10.323  0.00  0.00    +0.000 A 
ATOM     14  C   UNL     1      33.905  20.072   9.552  0.00  0.00    +0.000 A 
ATOM     15  C   UNL     1      32.664  20.197  10.123  0.00  0.00    +0.000 A 
ATOM     16  C   UNL     1      32.539  20.371  11.414  0.00  0.00    +0.000 A 
ATOM     17  C   UNL     1      33.633  20.435  12.239  0.00  0.00    +0.000 A 
ATOM     18  C   UNL     1      34.917  20.311  11.680  0.00  0.00    +0.000 A 
ENDBRANCH   1  16
TORSDOF 1
ENDMDL
MODEL 3
REMARK VINA RESULT:      -7.2     12.899     16.286
REMARK  Name = 
REMARK  1 active torsions:
REMARK  status: ('A' for Active; 'I' for Inactive)
REMARK    1  A    between atoms: C_5  and  C_6
REMARK                            x       y       z     vdW  Elec       q    Type
REMARK                         _______ _______ _______ _____ _____    ______ ____
ROOT
ATOM      1  C   UNL     1      26.454  22.935  25.315  0.00  0.00    +0.000 C 
ATOM      2  C   UNL     1      25.890  24.441  25.618  0.00  0.00    +0.000 C 
ATOM      3  O   UNL     1      26.565  25.029  26.664  0.00  0.00    +0.000 OA
ATOM      4  C   UNL     1      26.616  24.337  27.857  0.00  0.00    +0.000 A 
ATOM      5  C   UNL     1      26.104  24.723  29.074  0.00  0.00    +0.000 A 
ATOM      6  C   UNL     1      26.259  23.887  30.164  0.00  0.00    +0.000 A 
ATOM      7  O   UNL     1      25.770  24.208  31.423  0.00  0.00    +0.000 OA
ATOM      8  C   UNL     1      26.922  22.689  29.998  0.00  0.00    +0.000 A 
ATOM      9  C   UNL     1      27.441  22.306  28.754  0.00  0.00    +0.000 A 
ATOM     10  C   UNL     1      27.284  23.140  27.675  0.00  0.00    +0.000 A 
ATOM     11  C   UNL     1      27.759  22.915  26.318  0.00  0.00    +0.000 C 
ENDROOT
BRANCH   1  16
ATOM     12  O   UNL     1      29.612  24.390  20.784  0.00  0.00    +0.000 OA
ATOM     13  C   UNL     1      28.808  24.040  21.874  0.00  0.00    +0.000 A 
ATOM     14  C   UNL     1      27.449  24.049  21.774  0.00  0.00    +0.000 A 
ATOM     15  C   UNL     1      26.671  23.704  22.850  0.00  0.00    +0.000 A 
ATOM     16  C   UNL     1      27.221  23.360  23.986  0.00  0.00    +0.000 A 
ATOM     17  C   UNL     1      28.583  23.331  24.145  0.00  0.00    +0.000 A 
ATOM     18  C   UNL     1      29.404  23.681  23.058  0.00  0.00    +0.000 A 
ENDBRANCH   1  16
TORSDOF 1
ENDMDL
MODEL 4
REMARK VINA RESULT:      -7.2     28.070     30.102
REMARK  Name = 
REMARK  1 active torsions:
REMARK  status: ('A' for Active; 'I' for Inactive)
REMARK    1  A    between atoms: C_5  and  C_6
REMARK                            x       y       z     vdW  Elec       q    Type
REMARK                         _______ _______ _______ _____ _____    ______ ____
ROOT
ATOM      1  C   UNL     1      15.254  11.568  35.916  0.00  0.00    +0.000 C 
ATOM      2  C   UNL     1      15.924  12.875  36.637  0.00  0.00    +0.000 C 
ATOM      3  O   UNL     1      17.299  12.838  36.567  0.00  0.00    +0.000 OA
ATOM      4  C   UNL     1      17.929  11.707  37.046  0.00  0.00    +0.000 A 
ATOM      5  C   UNL     1      18.820  11.621  38.091  0.00  0.00    +0.000 A 
ATOM      6  C   UNL     1      19.351  10.389  38.422  0.00  0.00    +0.000 A 
ATOM      7  O   UNL     1      20.255  10.224  39.463  0.00  0.00    +0.000 OA
ATOM      8  C   UNL     1      18.972   9.281  37.694  0.00  0.00    +0.000 A 
ATOM      9  C   UNL     1      18.064   9.379  36.631  0.00  0.00    +0.000 A 
ATOM     10  C   UNL     1      17.539  10.605  36.307  0.00  0.00    +0.000 A 
ATOM     11  C   UNL     1      16.598  10.900  35.237  0.00  0.00    +0.000 C 
ENDROOT
BRANCH   1  16
ATOM     12  O   UNL     1      13.707  14.156  31.066  0.00  0.00    +0.000 OA
ATOM     13  C   UNL     1      14.068  13.548  32.273  0.00  0.00    +0.000 A 
ATOM     14  C   UNL     1      13.650  14.057  33.466  0.00  0.00    +0.000 A 
ATOM     15  C   UNL     1      14.011  13.451  34.644  0.00  0.00    +0.000 A 
ATOM     16  C   UNL     1      14.758  12.378  34.638  0.00  0.00    +0.000 A 
ATOM     17  C   UNL     1      15.206  11.821  33.468  0.00  0.00    +0.000 A 
ATOM     18  C   UNL     1      14.853  12.421  32.246  0.00  0.00    +0.000 A 
ENDBRANCH   1  16
TORSDOF 1
ENDMDL
MODEL 5
REMARK VINA RESULT:      -7.1     27.771     30.532
REMARK  Name = 
REMARK  1 active torsions:
REMARK  status: ('A' for Active; 'I' for Inactive)
REMARK    1  A    between atoms: C_5  and  C_6
REMARK                            x       y       z     vdW  Elec       q    Type
REMARK                         _______ _______ _______ _____ _____    ______ ____
ROOT
ATOM      1  C   UNL     1      17.241  11.627  35.734  0.00  0.00    +0.000 C 
ATOM      2  C   UNL     1      15.903  12.557  35.882  0.00  0.00    +0.000 C 
ATOM      3  O   UNL     1      14.880  12.095  35.085  0.00  0.00    +0.000 OA
ATOM      4  C   UNL     1      15.147  11.929  33.741  0.00  0.00    +0.000 A 
ATOM      5  C   UNL     1      14.553  12.575  32.681  0.00  0.00    +0.000 A 
ATOM      6  C   UNL     1      14.957  12.268  31.395  0.00  0.00    +0.000 A 
ATOM      7  O   UNL     1      14.404  12.878  30.276  0.00  0.00    +0.000 OA
ATOM      8  C   UNL     1      15.944  11.324  31.213  0.00  0.00    +0.000 A 
ATOM      9  C   UNL     1      16.543  10.671  32.299  0.00  0.00    +0.000 A 
ATOM     10  C   UNL     1      16.138  10.980  33.574  0.00  0.00    +0.000 A 
ATOM     11  C   UNL     1      16.634  10.403  34.814  0.00  0.00    +0.000 C 
ENDROOT
BRANCH   1  16
ATOM     12  O   UNL     1      17.036   8.969  40.785  0.00  0.00    +0.000 OA
ATOM     13  C   UNL     1      17.051   9.631  39.552  0.00  0.00    +0.000 A 
ATOM     14  C   UNL     1      15.955  10.308  39.107  0.00  0.00    +0.000 A 
ATOM     15  C   UNL     1      15.983  10.953  37.896  0.00  0.00    +0.000 A 
ATOM     16  C   UNL     1      17.059  10.929  37.153  0.00  0.00    +0.000 A 
ATOM     17  C   UNL     1      18.191  10.265  37.551  0.00  0.00    +0.000 A 
ATOM     18  C   UNL     1      18.191   9.594  38.787  0.00  0.00    +0.000 A 
ENDBRANCH   1  16
TORSDOF 1
ENDMDL
MODEL 6
REMARK VINA RESULT:      -7.1     27.808     30.062
REMARK  Name = 
REMARK  1 active torsions:
REMARK  status: ('A' for Active; 'I' for Inactive)
REMARK    1  A    between atoms: C_5  and  C_6
REMARK                            x       y       z     vdW  Elec       q    Type
REMARK                         _______ _______ _______ _____ _____    ______ ____
ROOT
ATOM      1  C   UNL     1      16.694  10.289  36.213  0.00  0.00    +0.000 C 
ATOM      2  C   UNL     1      17.478   9.426  35.065  0.00  0.00    +0.000 C 
ATOM      3  O   UNL     1      17.744  10.194  33.953  0.00  0.00    +0.000 OA
ATOM      4  C   UNL     1      16.680  10.841  33.358  0.00  0.00    +0.000 A 
ATOM      5  C   UNL     1      16.196  10.664  32.083  0.00  0.00    +0.000 A 
ATOM      6  C   UNL     1      15.113  11.414  31.664  0.00  0.00    +0.000 A 
ATOM      7  O   UNL     1      14.570  11.291  30.392  0.00  0.00    +0.000 OA
ATOM      8  C   UNL     1      14.549  12.317  32.539  0.00  0.00    +0.000 A 
ATOM      9  C   UNL     1      15.049  12.491  33.837  0.00  0.00    +0.000 A 
ATOM     10  C   UNL     1      16.125  11.743  34.247  0.00  0.00    +0.000 A 
ATOM     11  C   UNL     1      16.781  11.791  35.545  0.00  0.00    +0.000 C 
ENDROOT
BRANCH   1  16
ATOM     12  O   UNL     1      21.202  11.196  39.600  0.00  0.00    +0.000 OA
ATOM     13  C   UNL     1      20.104  10.938  38.773  0.00  0.00    +0.000 A 
ATOM     14  C   UNL     1      19.761   9.661  38.443  0.00  0.00    +0.000 A 
ATOM     15  C   UNL     1      18.681   9.420  37.630  0.00  0.00    +0.000 A 
ATOM     16  C   UNL     1      17.968  10.411  37.161  0.00  0.00    +0.000 A 
ATOM     17  C   UNL     1      18.266  11.715  37.460  0.00  0.00    +0.000 A 
ATOM     18  C   UNL     1      19.367  11.991  38.290  0.00  0.00    +0.000 A 
ENDBRANCH   1  16
TORSDOF 1
ENDMDL
MODEL 7
REMARK VINA RESULT:      -7.0     28.684     31.599
REMARK  Name = 
REMARK  1 active torsions:
REMARK  status: ('A' for Active; 'I' for Inactive)
REMARK    1  A    between atoms: C_5  and  C_6
REMARK                            x       y       z     vdW  Elec       q    Type
REMARK                         _______ _______ _______ _____ _____    ______ ____
ROOT
ATOM      1  C   UNL     1      14.377  13.166  36.268  0.00  0.00    +0.000 C 
ATOM      2  C   UNL     1      15.947  12.707  36.276  0.00  0.00    +0.000 C 
ATOM      3  O   UNL     1      16.079  11.375  36.603  0.00  0.00    +0.000 OA
ATOM      4  C   UNL     1      15.496  10.948  37.778  0.00  0.00    +0.000 A 
ATOM      5  C   UNL     1      16.122  10.413  38.880  0.00  0.00    +0.000 A 
ATOM      6  C   UNL     1      15.359  10.039  39.970  0.00  0.00    +0.000 A 
ATOM      7  O   UNL     1      15.919   9.492  41.117  0.00  0.00    +0.000 OA
ATOM      8  C   UNL     1      13.993  10.214  39.922  0.00  0.00    +0.000 A 
ATOM      9  C   UNL     1      13.364  10.759  38.794  0.00  0.00    +0.000 A 
ATOM     10  C   UNL     1      14.126  11.130  37.714  0.00  0.00    +0.000 A 
ATOM     11  C   UNL     1      13.653  11.700  36.462  0.00  0.00    +0.000 C 
ENDROOT
BRANCH   1  16
ATOM     12  O   UNL     1      13.780  13.814  30.625  0.00  0.00    +0.000 OA
ATOM     13  C   UNL     1      13.945  13.624  32.001  0.00  0.00    +0.000 A 
ATOM     14  C   UNL     1      14.650  12.561  32.482  0.00  0.00    +0.000 A 
ATOM     15  C   UNL     1      14.805  12.386  33.835  0.00  0.00    +0.000 A 
ATOM     16  C   UNL     1      14.281  13.236  34.680  0.00  0.00    +0.000 A 
ATOM     17  C   UNL     1      13.564  14.324  34.254  0.00  0.00    +0.000 A 
ATOM     18  C   UNL     1      13.388  14.527  32.873  0.00  0.00    +0.000 A 
ENDBRANCH   1  16
TORSDOF 1
ENDMDL
MODEL 8
REMARK VINA RESULT:      -6.9     12.890     15.590
REMARK  Name = 
REMARK  1 active torsions:
REMARK  status: ('A' for Active; 'I' for Inactive)
REMARK    1  A    between atoms: C_5  and  C_6
REMARK                            x       y       z     vdW  Elec       q    Type
REMARK                         _______ _______ _______ _____ _____    ______ ____
ROOT
ATOM      1  C   UNL     1      27.372  22.730  26.218  0.00  0.00    +0.000 C 
ATOM      2  C   UNL     1      28.843  23.437  26.324  0.00  0.00    +0.000 C 
ATOM      3  O   UNL     1      28.927  24.546  25.511  0.00  0.00    +0.000 OA
ATOM      4  C   UNL     1      28.620  24.380  24.176  0.00  0.00    +0.000 A 
ATOM      5  C   UNL     1      29.449  24.566  23.094  0.00  0.00    +0.000 A 
ATOM      6  C   UNL     1      28.954  24.351  21.822  0.00  0.00    +0.000 A 
ATOM      7  O   UNL     1      29.730  24.518  20.683  0.00  0.00    +0.000 OA
ATOM      8  C   UNL     1      27.641  23.955  21.675  0.00  0.00    +0.000 A 
ATOM      9  C   UNL     1      26.804  23.769  22.784  0.00  0.00    +0.000 A 
ATOM     10  C   UNL     1      27.302  23.984  24.045  0.00  0.00    +0.000 A 
ATOM     11  C   UNL     1      26.585  23.850  25.304  0.00  0.00    +0.000 C 
ENDROOT
BRANCH   1  16
ATOM     12  O   UNL     1      25.927  24.270  31.525  0.00  0.00    +0.000 OA
ATOM     13  C   UNL     1      26.257  23.918  30.212  0.00  0.00    +0.000 A 
ATOM     14  C   UNL     1      25.687  24.556  29.151  0.00  0.00    +0.000 A 
ATOM     15  C   UNL     1      26.020  24.202  27.867  0.00  0.00    +0.000 A 
ATOM     16  C   UNL     1      26.887  23.249  27.644  0.00  0.00    +0.000 A 
ATOM     17  C   UNL     1      27.493  22.573  28.672  0.00  0.00    +0.000 A 
ATOM     18  C   UNL     1      27.170  22.914  29.997  0.00  0.00    +0.000 A 
ENDBRANCH   1  16
TORSDOF 1
ENDMDL
MODEL 9
REMARK VINA RESULT:      -6.7      1.531      6.732
REMARK  Name = 
REMARK  1 active torsions:
REMARK  status: ('A' for Active; 'I' for Inactive)
REMARK    1  A    between atoms: C_5  and  C_6
REMARK                            x       y       z     vdW  Elec       q    Type
REMARK                         _______ _______ _______ _____ _____    ______ ____
ROOT
ATOM      1  C   UNL     1      30.990  22.319   9.617  0.00  0.00    +0.000 C 
ATOM      2  C   UNL     1      31.857  22.716  10.946  0.00  0.00    +0.000 C 
ATOM      3  O   UNL     1      31.249  22.264  12.096  0.00  0.00    +0.000 OA
ATOM      4  C   UNL     1      29.936  22.634  12.308  0.00  0.00    +0.000 A 
ATOM      5  C   UNL     1      29.432  23.389  13.342  0.00  0.00    +0.000 A 
ATOM      6  C   UNL     1      28.077  23.653  13.383  0.00  0.00    +0.000 A 
ATOM      7  O   UNL     1      27.496  24.407  14.394  0.00  0.00    +0.000 OA
ATOM      8  C   UNL     1      27.268  23.152  12.385  0.00  0.00    +0.000 A 
ATOM      9  C   UNL     1      27.790  22.383  11.336  0.00  0.00    +0.000 A 
ATOM     10  C   UNL     1      29.138  22.125  11.300  0.00  0.00    +0.000 A 
ATOM     11  C   UNL     1      29.853  21.344  10.301  0.00  0.00    +0.000 C 
ENDROOT
BRANCH   1  16
ATOM     12  O   UNL     1      34.345  18.177   7.564  0.00  0.00    +0.000 OA
ATOM     13  C   UNL     1      33.543  19.193   8.097  0.00  0.00    +0.000 A 
ATOM     14  C   UNL     1      33.808  19.721   9.325  0.00  0.00    +0.000 A 
ATOM     15  C   UNL     1      33.014  20.717   9.838  0.00  0.00    +0.000 A 
ATOM     16  C   UNL     1      31.995  21.173   9.157  0.00  0.00    +0.000 A 
ATOM     17  C   UNL     1      31.682  20.679   7.916  0.00  0.00    +0.000 A 
ATOM     18  C   UNL     1      32.477  19.658   7.367  0.00  0.00    +0.000 A 
ENDBRANCH   1  16
TORSDOF 1
ENDMDL
MODEL 10
REMARK VINA RESULT:      -6.5     30.929     32.363
REMARK  Name = 
REMARK  1 active torsions:
REMARK  status: ('A' for Active; 'I' for Inactive)
REMARK    1  A    between atoms: C_5  and  C_6
REMARK                            x       y       z     vdW  Elec       q    Type
REMARK                         _______ _______ _______ _____ _____    ______ ____
ROOT
ATOM      1  C   UNL     1      34.300  -0.728  34.106  0.00  0.00    +0.000 C 
ATOM      2  C   UNL     1      34.462  -0.492  35.717  0.00  0.00    +0.000 C 
ATOM      3  O   UNL     1      33.648   0.527  36.160  0.00  0.00    +0.000 OA
ATOM      4  C   UNL     1      33.759   1.749  35.528  0.00  0.00    +0.000 A 
ATOM      5  C   UNL     1      34.143   2.948  36.082  0.00  0.00    +0.000 A 
ATOM      6  C   UNL     1      34.191   4.074  35.282  0.00  0.00    +0.000 A 
ATOM      7  O   UNL     1      34.568   5.318  35.769  0.00  0.00    +0.000 OA
ATOM      8  C   UNL     1      33.852   3.961  33.950  0.00  0.00    +0.000 A 
ATOM      9  C   UNL     1      33.462   2.735  33.395  0.00  0.00    +0.000 A 
ATOM     10  C   UNL     1      33.417   1.620  34.195  0.00  0.00    +0.000 A 
ATOM     11  C   UNL     1      33.030   0.274  33.800  0.00  0.00    +0.000 C 
ENDROOT
BRANCH   1  16
ATOM     12  O   UNL     1      31.531  -5.720  34.291  0.00  0.00    +0.000 OA
ATOM     13  C   UNL     1      32.191  -4.487  34.276  0.00  0.00    +0.000 A 
ATOM     14  C   UNL     1      31.945  -3.549  35.234  0.00  0.00    +0.000 A 
ATOM     15  C   UNL     1      32.600  -2.343  35.208  0.00  0.00    +0.000 A 
ATOM     16  C   UNL     1      33.467  -2.076  34.266  0.00  0.00    +0.000 A 
ATOM     17  C   UNL     1      33.755  -2.981  33.277  0.00  0.00    +0.000 A 
ATOM     18  C   UNL     1      33.099  -4.225  33.278  0.00  0.00    +0.000 A 
ENDBRANCH   1  16
TORSDOF 1
ENDMDL
