MODEL 1
REMARK VINA RESULT:      -6.8      0.000      0.000
REMARK  Name = 
REMARK  2 active torsions:
REMARK  status: ('A' for Active; 'I' for Inactive)
REMARK    1  A    between atoms: C_2  and  N_5
REMARK    2  A    between atoms: C_7  and  C_8
REMARK                            x       y       z     vdW  Elec       q    Type
REMARK                         _______ _______ _______ _____ _____    ______ ____
ROOT
ATOM      1  N   UNL     1      31.936  21.870   8.867  0.00  0.00    +0.000 N 
ATOM      2  N   UNL     1      30.742  22.349   9.135  0.00  0.00    +0.000 NA
ATOM      3  C   UNL     1      30.486  22.179  10.455  0.00  0.00    +0.000 A 
ATOM      4  C   UNL     1      31.593  21.567  10.992  0.00  0.00    +0.000 A 
ATOM      5  C   UNL     1      31.869  21.166  12.283  0.00  0.00    +0.000 A 
ATOM      6  N   UNL     1      30.952  21.356  13.341  0.00  0.00    +0.000 NA
ATOM      7  N   UNL     1      33.054  20.582  12.525  0.00  0.00    +0.000 NA
ATOM      8  C   UNL     1      33.959  20.390  11.529  0.00  0.00    +0.000 A 
ATOM      9  N   UNL     1      33.683  20.784  10.271  0.00  0.00    +0.000 NA
ATOM     10  C   UNL     1      32.514  21.372   9.971  0.00  0.00    +0.000 A 
ENDROOT
BRANCH   3  11
ATOM     11  C   UNL     1      29.259  22.584  11.155  0.00  0.00    +0.000 A 
ATOM     12  C   UNL     1      28.128  21.845  10.896  0.00  0.00    +0.000 A 
ATOM     13  C   UNL     1      26.906  22.092  11.480  0.00  0.00    +0.000 A 
ATOM     14  C   UNL     1      26.838  23.144  12.370  0.00  0.00    +0.000 A 
ATOM     15  F   UNL     1      25.651  23.457  12.998  0.00  0.00    +0.000 F 
ATOM     16  C   UNL     1      27.966  23.888  12.635  0.00  0.00    +0.000 A 
ATOM     17  C   UNL     1      29.172  23.623  12.040  0.00  0.00    +0.000 A 
ENDBRANCH   3  11
BRANCH   1  19
ATOM     18  C   UNL     1      33.201  20.514   7.366  0.00  0.00    +0.000 C 
ATOM     19  C   UNL     1      32.550  21.878   7.546  0.00  0.00    +0.000 C 
ATOM     20  C   UNL     1      31.451  22.074   6.535  0.00  0.00    +0.000 C 
ATOM     21  C   UNL     1      33.587  22.978   7.481  0.00  0.00    +0.000 C 
ENDBRANCH   1  19
TORSDOF 2
ENDMDL
MODEL 2
REMARK VINA RESULT:      -6.4     33.038     35.203
REMARK  Name = 
REMARK  2 active torsions:
REMARK  status: ('A' for Active; 'I' for Inactive)
REMARK    1  A    between atoms: C_2  and  N_5
REMARK    2  A    between atoms: C_7  and  C_8
REMARK                            x       y       z     vdW  Elec       q    Type
REMARK                         _______ _______ _______ _____ _____    ______ ____
ROOT
ATOM      1  N   UNL     1      33.379  -2.656  34.073  0.00  0.00    +0.000 N 
ATOM      2  N   UNL     1      33.755  -3.048  32.876  0.00  0.00    +0.000 NA
ATOM      3  C   UNL     1      33.520  -4.378  32.755  0.00  0.00    +0.000 A 
ATOM      4  C   UNL     1      32.973  -4.787  33.947  0.00  0.00    +0.000 A 
ATOM      5  C   UNL     1      32.546  -6.030  34.367  0.00  0.00    +0.000 A 
ATOM      6  N   UNL     1      32.617  -7.170  33.536  0.00  0.00    +0.000 NA
ATOM      7  N   UNL     1      32.045  -6.141  35.609  0.00  0.00    +0.000 NA
ATOM      8  C   UNL     1      31.959  -5.062  36.431  0.00  0.00    +0.000 A 
ATOM      9  N   UNL     1      32.377  -3.852  36.014  0.00  0.00    +0.000 NA
ATOM     10  C   UNL     1      32.888  -3.682  34.784  0.00  0.00    +0.000 A 
ENDROOT
BRANCH   3  11
ATOM     11  C   UNL     1      33.797  -5.198  31.568  0.00  0.00    +0.000 A 
ATOM     12  C   UNL     1      32.858  -5.167  30.563  0.00  0.00    +0.000 A 
ATOM     13  C   UNL     1      32.978  -5.872  29.387  0.00  0.00    +0.000 A 
ATOM     14  C   UNL     1      34.111  -6.643  29.231  0.00  0.00    +0.000 A 
ATOM     15  F   UNL     1      34.307  -7.379  28.081  0.00  0.00    +0.000 F 
ATOM     16  C   UNL     1      35.056  -6.679  30.232  0.00  0.00    +0.000 A 
ATOM     17  C   UNL     1      34.913  -5.969  31.395  0.00  0.00    +0.000 A 
ENDBRANCH   3  11
BRANCH   1  19
ATOM     18  C   UNL     1      33.986  -0.450  33.394  0.00  0.00    +0.000 C 
ATOM     19  C   UNL     1      33.483  -1.287  34.562  0.00  0.00    +0.000 C 
ATOM     20  C   UNL     1      32.102  -0.844  34.970  0.00  0.00    +0.000 C 
ATOM     21  C   UNL     1      34.460  -1.239  35.715  0.00  0.00    +0.000 C 
ENDBRANCH   1  19
TORSDOF 2
ENDMDL
MODEL 3
REMARK VINA RESULT:      -6.3     29.968     32.098
REMARK  Name = 
REMARK  2 active torsions:
REMARK  status: ('A' for Active; 'I' for Inactive)
REMARK    1  A    between atoms: C_2  and  N_5
REMARK    2  A    between atoms: C_7  and  C_8
REMARK                            x       y       z     vdW  Elec       q    Type
REMARK                         _______ _______ _______ _____ _____    ______ ____
ROOT
ATOM      1  N   UNL     1      33.857   1.437  35.082  0.00  0.00    +0.000 N 
ATOM      2  N   UNL     1      34.143   2.656  34.682  0.00  0.00    +0.000 NA
ATOM      3  C   UNL     1      34.323   3.444  35.771  0.00  0.00    +0.000 A 
ATOM      4  C   UNL     1      34.133   2.642  36.870  0.00  0.00    +0.000 A 
ATOM      5  C   UNL     1      34.197   2.924  38.219  0.00  0.00    +0.000 A 
ATOM      6  N   UNL     1      34.502   4.216  38.702  0.00  0.00    +0.000 NA
ATOM      7  N   UNL     1      33.961   1.927  39.087  0.00  0.00    +0.000 NA
ATOM      8  C   UNL     1      33.669   0.672  38.652  0.00  0.00    +0.000 A 
ATOM      9  N   UNL     1      33.610   0.403  37.334  0.00  0.00    +0.000 NA
ATOM     10  C   UNL     1      33.834   1.361  36.421  0.00  0.00    +0.000 A 
ENDROOT
BRANCH   3  11
ATOM     11  C   UNL     1      34.662   4.874  35.754  0.00  0.00    +0.000 A 
ATOM     12  C   UNL     1      35.992   5.192  35.611  0.00  0.00    +0.000 A 
ATOM     13  C   UNL     1      36.467   6.483  35.567  0.00  0.00    +0.000 A 
ATOM     14  C   UNL     1      35.536   7.497  35.673  0.00  0.00    +0.000 A 
ATOM     15  F   UNL     1      35.930   8.818  35.638  0.00  0.00    +0.000 F 
ATOM     16  C   UNL     1      34.202   7.186  35.816  0.00  0.00    +0.000 A 
ATOM     17  C   UNL     1      33.755   5.892  35.858  0.00  0.00    +0.000 A 
ENDBRANCH   3  11
BRANCH   1  19
ATOM     18  C   UNL     1      32.144  -0.081  34.407  0.00  0.00    +0.000 C 
ATOM     19  C   UNL     1      33.598   0.316  34.187  0.00  0.00    +0.000 C 
ATOM     20  C   UNL     1      33.803   0.803  32.777  0.00  0.00    +0.000 C 
ATOM     21  C   UNL     1      34.524  -0.828  34.536  0.00  0.00    +0.000 C 
ENDBRANCH   1  19
TORSDOF 2
ENDMDL
MODEL 4
REMARK VINA RESULT:      -6.2      2.237      3.307
REMARK  Name = 
REMARK  2 active torsions:
REMARK  status: ('A' for Active; 'I' for Inactive)
REMARK    1  A    between atoms: C_2  and  N_5
REMARK    2  A    between atoms: C_7  and  C_8
REMARK                            x       y       z     vdW  Elec       q    Type
REMARK                         _______ _______ _______ _____ _____    ______ ____
ROOT
ATOM      1  N   UNL     1      31.651  20.350   7.332  0.00  0.00    +0.000 N 
ATOM      2  N   UNL     1      30.881  20.551   8.378  0.00  0.00    +0.000 NA
ATOM      3  C   UNL     1      31.546  21.326   9.269  0.00  0.00    +0.000 A 
ATOM      4  C   UNL     1      32.773  21.595   8.713  0.00  0.00    +0.000 A 
ATOM      5  C   UNL     1      33.838  22.335   9.185  0.00  0.00    +0.000 A 
ATOM      6  N   UNL     1      33.804  22.988  10.438  0.00  0.00    +0.000 NA
ATOM      7  N   UNL     1      34.935  22.430   8.415  0.00  0.00    +0.000 NA
ATOM      8  C   UNL     1      34.996  21.818   7.203  0.00  0.00    +0.000 A 
ATOM      9  N   UNL     1      33.953  21.098   6.748  0.00  0.00    +0.000 NA
ATOM     10  C   UNL     1      32.833  20.967   7.476  0.00  0.00    +0.000 A 
ENDROOT
BRANCH   3  11
ATOM     11  C   UNL     1      31.032  21.782  10.568  0.00  0.00    +0.000 A 
ATOM     12  C   UNL     1      30.214  22.888  10.555  0.00  0.00    +0.000 A 
ATOM     13  C   UNL     1      29.646  23.430  11.685  0.00  0.00    +0.000 A 
ATOM     14  C   UNL     1      29.928  22.811  12.886  0.00  0.00    +0.000 A 
ATOM     15  F   UNL     1      29.398  23.292  14.065  0.00  0.00    +0.000 F 
ATOM     16  C   UNL     1      30.745  21.703  12.907  0.00  0.00    +0.000 A 
ATOM     17  C   UNL     1      31.300  21.183  11.767  0.00  0.00    +0.000 A 
ENDBRANCH   3  11
BRANCH   1  19
ATOM     18  C   UNL     1      32.149  18.317   6.185  0.00  0.00    +0.000 C 
ATOM     19  C   UNL     1      31.269  19.559   6.168  0.00  0.00    +0.000 C 
ATOM     20  C   UNL     1      29.821  19.180   6.331  0.00  0.00    +0.000 C 
ATOM     21  C   UNL     1      31.508  20.368   4.912  0.00  0.00    +0.000 C 
ENDBRANCH   1  19
TORSDOF 2
ENDMDL
MODEL 5
REMARK VINA RESULT:      -6.0     35.025     36.470
REMARK  Name = 
REMARK  2 active torsions:
REMARK  status: ('A' for Active; 'I' for Inactive)
REMARK    1  A    between atoms: C_2  and  N_5
REMARK    2  A    between atoms: C_7  and  C_8
REMARK                            x       y       z     vdW  Elec       q    Type
REMARK                         _______ _______ _______ _____ _____    ______ ____
ROOT
ATOM      1  N   UNL     1      20.559  -8.132  25.464  0.00  0.00    +0.000 N 
ATOM      2  N   UNL     1      19.854  -9.159  25.882  0.00  0.00    +0.000 NA
ATOM      3  C   UNL     1      18.721  -8.703  26.472  0.00  0.00    +0.000 A 
ATOM      4  C   UNL     1      18.765  -7.332  26.394  0.00  0.00    +0.000 A 
ATOM      5  C   UNL     1      17.876  -6.372  26.831  0.00  0.00    +0.000 A 
ATOM      6  N   UNL     1      16.670  -6.707  27.486  0.00  0.00    +0.000 NA
ATOM      7  N   UNL     1      18.181  -5.081  26.615  0.00  0.00    +0.000 NA
ATOM      8  C   UNL     1      19.331  -4.727  25.984  0.00  0.00    +0.000 A 
ATOM      9  N   UNL     1      20.194  -5.670  25.559  0.00  0.00    +0.000 NA
ATOM     10  C   UNL     1      19.942  -6.975  25.749  0.00  0.00    +0.000 A 
ENDROOT
BRANCH   3  11
ATOM     11  C   UNL     1      17.665  -9.533  27.068  0.00  0.00    +0.000 A 
ATOM     12  C   UNL     1      17.823  -9.878  28.391  0.00  0.00    +0.000 A 
ATOM     13  C   UNL     1      16.917 -10.641  29.092  0.00  0.00    +0.000 A 
ATOM     14  C   UNL     1      15.798 -11.070  28.410  0.00  0.00    +0.000 A 
ATOM     15  F   UNL     1      14.842 -11.838  29.041  0.00  0.00    +0.000 F 
ATOM     16  C   UNL     1      15.632 -10.728  27.086  0.00  0.00    +0.000 A 
ATOM     17  C   UNL     1      16.549  -9.968  26.409  0.00  0.00    +0.000 A 
ENDBRANCH   3  11
BRANCH   1  19
ATOM     18  C   UNL     1      22.627  -9.321  25.504  0.00  0.00    +0.000 C 
ATOM     19  C   UNL     1      21.841  -8.237  24.779  0.00  0.00    +0.000 C 
ATOM     20  C   UNL     1      21.566  -8.649  23.357  0.00  0.00    +0.000 C 
ATOM     21  C   UNL     1      22.562  -6.909  24.859  0.00  0.00    +0.000 C 
ENDBRANCH   1  19
TORSDOF 2
ENDMDL
MODEL 6
REMARK VINA RESULT:      -6.0     36.902     38.663
REMARK  Name = 
REMARK  2 active torsions:
REMARK  status: ('A' for Active; 'I' for Inactive)
REMARK    1  A    between atoms: C_2  and  N_5
REMARK    2  A    between atoms: C_7  and  C_8
REMARK                            x       y       z     vdW  Elec       q    Type
REMARK                         _______ _______ _______ _____ _____    ______ ____
ROOT
ATOM      1  N   UNL     1      17.465 -10.450  29.929  0.00  0.00    +0.000 N 
ATOM      2  N   UNL     1      18.240  -9.473  29.514  0.00  0.00    +0.000 NA
ATOM      3  C   UNL     1      17.868  -9.122  28.258  0.00  0.00    +0.000 A 
ATOM      4  C   UNL     1      16.817  -9.939  27.919  0.00  0.00    +0.000 A 
ATOM      5  C   UNL     1      16.062 -10.011  26.766  0.00  0.00    +0.000 A 
ATOM      6  N   UNL     1      16.292  -9.161  25.662  0.00  0.00    +0.000 NA
ATOM      7  N   UNL     1      15.077 -10.923  26.710  0.00  0.00    +0.000 NA
ATOM      8  C   UNL     1      14.827 -11.753  27.758  0.00  0.00    +0.000 A 
ATOM      9  N   UNL     1      15.568 -11.676  28.881  0.00  0.00    +0.000 NA
ATOM     10  C   UNL     1      16.566 -10.785  28.992  0.00  0.00    +0.000 A 
ENDROOT
BRANCH   3  11
ATOM     11  C   UNL     1      18.483  -8.067  27.440  0.00  0.00    +0.000 A 
ATOM     12  C   UNL     1      17.931  -6.810  27.537  0.00  0.00    +0.000 A 
ATOM     13  C   UNL     1      18.399  -5.717  26.844  0.00  0.00    +0.000 A 
ATOM     14  C   UNL     1      19.481  -5.919  26.013  0.00  0.00    +0.000 A 
ATOM     15  F   UNL     1      20.010  -4.875  25.283  0.00  0.00    +0.000 F 
ATOM     16  C   UNL     1      20.039  -7.174  25.910  0.00  0.00    +0.000 A 
ATOM     17  C   UNL     1      19.554  -8.247  26.610  0.00  0.00    +0.000 A 
ENDBRANCH   3  11
BRANCH   1  19
ATOM     18  C   UNL     1      18.842 -10.545  31.876  0.00  0.00    +0.000 C 
ATOM     19  C   UNL     1      17.570 -11.085  31.237  0.00  0.00    +0.000 C 
ATOM     20  C   UNL     1      16.363 -10.677  32.039  0.00  0.00    +0.000 C 
ATOM     21  C   UNL     1      17.655 -12.585  31.060  0.00  0.00    +0.000 C 
ENDBRANCH   1  19
TORSDOF 2
ENDMDL
MODEL 7
REMARK VINA RESULT:      -6.0     13.518     16.464
REMARK  Name = 
REMARK  2 active torsions:
REMARK  status: ('A' for Active; 'I' for Inactive)
REMARK    1  A    between atoms: C_2  and  N_5
REMARK    2  A    between atoms: C_7  and  C_8
REMARK                            x       y       z     vdW  Elec       q    Type
REMARK                         _______ _______ _______ _____ _____    ______ ____
ROOT
ATOM      1  N   UNL     1      27.611  24.124  27.580  0.00  0.00    +0.000 N 
ATOM      2  N   UNL     1      27.432  24.485  26.330  0.00  0.00    +0.000 NA
ATOM      3  C   UNL     1      28.538  24.160  25.616  0.00  0.00    +0.000 A 
ATOM      4  C   UNL     1      29.413  23.573  26.498  0.00  0.00    +0.000 A 
ATOM      5  C   UNL     1      30.678  23.056  26.309  0.00  0.00    +0.000 A 
ATOM      6  N   UNL     1      31.310  23.058  25.046  0.00  0.00    +0.000 NA
ATOM      7  N   UNL     1      31.315  22.535  27.371  0.00  0.00    +0.000 NA
ATOM      8  C   UNL     1      30.731  22.514  28.599  0.00  0.00    +0.000 A 
ATOM      9  N   UNL     1      29.495  23.020  28.776  0.00  0.00    +0.000 NA
ATOM     10  C   UNL     1      28.814  23.555  27.751  0.00  0.00    +0.000 A 
ENDROOT
BRANCH   3  11
ATOM     11  C   UNL     1      28.737  24.394  24.179  0.00  0.00    +0.000 A 
ATOM     12  C   UNL     1      29.256  25.615  23.818  0.00  0.00    +0.000 A 
ATOM     13  C   UNL     1      29.510  25.981  22.516  0.00  0.00    +0.000 A 
ATOM     14  C   UNL     1      29.219  25.054  21.537  0.00  0.00    +0.000 A 
ATOM     15  F   UNL     1      29.444  25.342  20.207  0.00  0.00    +0.000 F 
ATOM     16  C   UNL     1      28.699  23.828  21.890  0.00  0.00    +0.000 A 
ATOM     17  C   UNL     1      28.455  23.488  23.195  0.00  0.00    +0.000 A 
ENDBRANCH   3  11
BRANCH   1  19
ATOM     18  C   UNL     1      25.346  24.771  27.963  0.00  0.00    +0.000 C 
ATOM     19  C   UNL     1      26.630  24.315  28.642  0.00  0.00    +0.000 C 
ATOM     20  C   UNL     1      26.425  22.985  29.317  0.00  0.00    +0.000 C 
ATOM     21  C   UNL     1      27.131  25.371  29.602  0.00  0.00    +0.000 C 
ENDBRANCH   1  19
TORSDOF 2
ENDMDL
MODEL 8
REMARK VINA RESULT:      -5.9     30.995     33.244
REMARK  Name = 
REMARK  2 active torsions:
REMARK  status: ('A' for Active; 'I' for Inactive)
REMARK    1  A    between atoms: C_2  and  N_5
REMARK    2  A    between atoms: C_7  and  C_8
REMARK                            x       y       z     vdW  Elec       q    Type
REMARK                         _______ _______ _______ _____ _____    ______ ____
ROOT
ATOM      1  N   UNL     1      34.145   2.697  37.154  0.00  0.00    +0.000 N 
ATOM      2  N   UNL     1      34.020   1.389  37.202  0.00  0.00    +0.000 NA
ATOM      3  C   UNL     1      33.800   0.923  35.948  0.00  0.00    +0.000 A 
ATOM      4  C   UNL     1      33.798   2.018  35.119  0.00  0.00    +0.000 A 
ATOM      5  C   UNL     1      33.622   2.120  33.754  0.00  0.00    +0.000 A 
ATOM      6  N   UNL     1      33.401   0.988  32.939  0.00  0.00    +0.000 NA
ATOM      7  N   UNL     1      33.670   3.342  33.199  0.00  0.00    +0.000 NA
ATOM      8  C   UNL     1      33.887   4.450  33.956  0.00  0.00    +0.000 A 
ATOM      9  N   UNL     1      34.058   4.343  35.288  0.00  0.00    +0.000 NA
ATOM     10  C   UNL     1      34.018   3.148  35.897  0.00  0.00    +0.000 A 
ENDROOT
BRANCH   3  11
ATOM     11  C   UNL     1      33.609  -0.485  35.573  0.00  0.00    +0.000 A 
ATOM     12  C   UNL     1      32.310  -0.932  35.492  0.00  0.00    +0.000 A 
ATOM     13  C   UNL     1      31.968  -2.219  35.144  0.00  0.00    +0.000 A 
ATOM     14  C   UNL     1      33.002  -3.089  34.865  0.00  0.00    +0.000 A 
ATOM     15  F   UNL     1      32.743  -4.395  34.508  0.00  0.00    +0.000 F 
ATOM     16  C   UNL     1      34.304  -2.648  34.942  0.00  0.00    +0.000 A 
ATOM     17  C   UNL     1      34.620  -1.362  35.292  0.00  0.00    +0.000 A 
ENDBRANCH   3  11
BRANCH   1  19
ATOM     18  C   UNL     1      34.169   2.669  39.540  0.00  0.00    +0.000 C 
ATOM     19  C   UNL     1      34.391   3.544  38.314  0.00  0.00    +0.000 C 
ATOM     20  C   UNL     1      35.824   4.003  38.247  0.00  0.00    +0.000 C 
ATOM     21  C   UNL     1      33.420   4.704  38.302  0.00  0.00    +0.000 C 
ENDBRANCH   1  19
TORSDOF 2
ENDMDL
MODEL 9
REMARK VINA RESULT:      -5.9     13.533     16.336
REMARK  Name = 
REMARK  2 active torsions:
REMARK  status: ('A' for Active; 'I' for Inactive)
REMARK    1  A    between atoms: C_2  and  N_5
REMARK    2  A    between atoms: C_7  and  C_8
REMARK                            x       y       z     vdW  Elec       q    Type
REMARK                         _______ _______ _______ _____ _____    ______ ____
ROOT
ATOM      1  N   UNL     1      27.198  24.158  25.381  0.00  0.00    +0.000 N 
ATOM      2  N   UNL     1      27.913  23.867  26.445  0.00  0.00    +0.000 NA
ATOM      3  C   UNL     1      29.201  23.673  26.067  0.00  0.00    +0.000 A 
ATOM      4  C   UNL     1      29.242  23.863  24.707  0.00  0.00    +0.000 A 
ATOM      5  C   UNL     1      30.292  23.792  23.815  0.00  0.00    +0.000 A 
ATOM      6  N   UNL     1      31.608  23.485  24.226  0.00  0.00    +0.000 NA
ATOM      7  N   UNL     1      30.038  24.030  22.517  0.00  0.00    +0.000 NA
ATOM      8  C   UNL     1      28.783  24.333  22.092  0.00  0.00    +0.000 A 
ATOM      9  N   UNL     1      27.763  24.401  22.968  0.00  0.00    +0.000 NA
ATOM     10  C   UNL     1      27.958  24.172  24.276  0.00  0.00    +0.000 A 
ENDROOT
BRANCH   3  11
ATOM     11  C   UNL     1      30.319  23.333  26.959  0.00  0.00    +0.000 A 
ATOM     12  C   UNL     1      31.074  24.382  27.431  0.00  0.00    +0.000 A 
ATOM     13  C   UNL     1      32.145  24.228  28.280  0.00  0.00    +0.000 A 
ATOM     14  C   UNL     1      32.459  22.941  28.665  0.00  0.00    +0.000 A 
ATOM     15  F   UNL     1      33.519  22.701  29.515  0.00  0.00    +0.000 F 
ATOM     16  C   UNL     1      31.708  21.886  28.198  0.00  0.00    +0.000 A 
ATOM     17  C   UNL     1      30.645  22.065  27.351  0.00  0.00    +0.000 A 
ENDBRANCH   3  11
BRANCH   1  19
ATOM     18  C   UNL     1      25.323  24.297  26.851  0.00  0.00    +0.000 C 
ATOM     19  C   UNL     1      25.766  24.431  25.401  0.00  0.00    +0.000 C 
ATOM     20  C   UNL     1      25.565  25.844  24.918  0.00  0.00    +0.000 C 
ATOM     21  C   UNL     1      25.051  23.424  24.527  0.00  0.00    +0.000 C 
ENDBRANCH   1  19
TORSDOF 2
ENDMDL
MODEL 10
REMARK VINA RESULT:      -5.9     19.491     20.909
REMARK  Name = 
REMARK  2 active torsions:
REMARK  status: ('A' for Active; 'I' for Inactive)
REMARK    1  A    between atoms: C_2  and  N_5
REMARK    2  A    between atoms: C_7  and  C_8
REMARK                            x       y       z     vdW  Elec       q    Type
REMARK                         _______ _______ _______ _____ _____    ______ ____
ROOT
ATOM      1  N   UNL     1      22.914   2.687  16.851  0.00  0.00    +0.000 N 
ATOM      2  N   UNL     1      23.436   3.715  17.483  0.00  0.00    +0.000 NA
ATOM      3  C   UNL     1      24.689   3.928  17.012  0.00  0.00    +0.000 A 
ATOM      4  C   UNL     1      24.913   2.974  16.050  0.00  0.00    +0.000 A 
ATOM      5  C   UNL     1      26.014   2.731  15.254  0.00  0.00    +0.000 A 
ATOM      6  N   UNL     1      27.183   3.521  15.328  0.00  0.00    +0.000 NA
ATOM      7  N   UNL     1      25.954   1.710  14.383  0.00  0.00    +0.000 NA
ATOM      8  C   UNL     1      24.841   0.936  14.285  0.00  0.00    +0.000 A 
ATOM      9  N   UNL     1      23.770   1.178  15.065  0.00  0.00    +0.000 NA
ATOM     10  C   UNL     1      23.774   2.184  15.953  0.00  0.00    +0.000 A 
ENDROOT
BRANCH   3  11
ATOM     11  C   UNL     1      25.609   4.985  17.456  0.00  0.00    +0.000 A 
ATOM     12  C   UNL     1      26.365   4.717  18.573  0.00  0.00    +0.000 A 
ATOM     13  C   UNL     1      27.276   5.599  19.106  0.00  0.00    +0.000 A 
ATOM     14  C   UNL     1      27.422   6.812  18.466  0.00  0.00    +0.000 A 
ATOM     15  F   UNL     1      28.316   7.752  18.936  0.00  0.00    +0.000 F 
ATOM     16  C   UNL     1      26.670   7.088  17.346  0.00  0.00    +0.000 A 
ATOM     17  C   UNL     1      25.767   6.193  16.835  0.00  0.00    +0.000 A 
ENDBRANCH   3  11
BRANCH   1  19
ATOM     18  C   UNL     1      21.758   0.790  17.722  0.00  0.00    +0.000 C 
ATOM     19  C   UNL     1      21.575   2.164  17.094  0.00  0.00    +0.000 C 
ATOM     20  C   UNL     1      20.891   3.096  18.059  0.00  0.00    +0.000 C 
ATOM     21  C   UNL     1      20.832   2.058  15.781  0.00  0.00    +0.000 C 
ENDBRANCH   1  19
TORSDOF 2
ENDMDL
