MODEL 1
REMARK VINA RESULT:      -8.0      0.000      0.000
REMARK  Name = 
REMARK  6 active torsions:
REMARK  status: ('A' for Active; 'I' for Inactive)
REMARK    1  A    between atoms: C_5  and  S_6
REMARK    2  A    between atoms: S_6  and  C_7
REMARK    3  A    between atoms: C_8  and  N_9
REMARK    4  A    between atoms: N_21  and  C_22
REMARK    5  A    between atoms: C_22  and  C_23
REMARK    6  A    between atoms: C_23  and  C_24
REMARK                            x       y       z     vdW  Elec       q    Type
REMARK                         _______ _______ _______ _____ _____    ______ ____
ROOT
ATOM      1  C   UNL     1      37.031   1.592  14.757  0.00  0.00    +0.000 C 
ATOM      2  C   UNL     1      36.782   1.502  16.083  0.00  0.00    +0.000 C 
ATOM      3  C   UNL     1      37.023   2.781  16.722  0.00  0.00    +0.000 C 
ATOM      4  O   UNL     1      36.892   3.060  17.950  0.00  0.00    +0.000 OA
ATOM      5  N   UNL     1      37.444   3.716  15.749  0.00  0.00    +0.000 N 
ATOM      6  C   UNL     1      37.446   2.956  14.511  0.00  0.00    +0.000 C 
ATOM      7  O   UNL     1      37.770   3.475  13.436  0.00  0.00    +0.000 OA
ENDROOT
BRANCH   2   8
ATOM      8  N   UNL     1      36.351   0.348  16.757  0.00  0.00    +0.000 N 
ATOM      9  C   UNL     1      35.005  -0.161  16.597  0.00  0.00    +0.000 C 
ATOM     10  C   UNL     1      34.881  -1.624  16.870  0.00  0.00    +0.000 C 
ATOM     11  C   UNL     1      36.139  -2.382  16.676  0.00  0.00    +0.000 A 
ATOM     12  C   UNL     1      36.134  -3.653  16.118  0.00  0.00    +0.000 A 
ATOM     13  C   UNL     1      37.343  -4.291  15.972  0.00  0.00    +0.000 A 
ATOM     14  C   UNL     1      38.529  -3.715  16.357  0.00  0.00    +0.000 A 
ATOM     15  C   UNL     1      38.484  -2.448  16.907  0.00  0.00    +0.000 A 
ATOM     16  C   UNL     1      37.303  -1.766  17.075  0.00  0.00    +0.000 A 
ATOM     17  C   UNL     1      37.231  -0.408  17.659  0.00  0.00    +0.000 C 
ENDBRANCH   2   8
BRANCH   1  18
ATOM     18  S   UNL     1      36.833   0.209  13.693  0.00  0.00    +0.000 S 
BRANCH  18  23
ATOM     19  C   UNL     1      41.718  -3.326  13.226  0.00  0.00    +0.000 C 
ATOM     20  C   UNL     1      40.565  -2.435  13.364  0.00  0.00    +0.000 A 
ATOM     21  C   UNL     1      40.577  -1.214  13.981  0.00  0.00    +0.000 A 
ATOM     22  C   UNL     1      39.479  -0.413  14.090  0.00  0.00    +0.000 A 
ATOM     23  C   UNL     1      38.267  -0.825  13.557  0.00  0.00    +0.000 A 
ATOM     24  C   UNL     1      38.257  -2.040  12.944  0.00  0.00    +0.000 A 
ATOM     25  C   UNL     1      39.348  -2.847  12.831  0.00  0.00    +0.000 A 
ENDBRANCH  18  23
ENDBRANCH   1  18
BRANCH   5  26
ATOM     26  C   UNL     1      37.800   5.115  15.912  0.00  0.00    +0.000 C 
BRANCH  26  27
ATOM     27  C   UNL     1      39.184   5.151  16.547  0.00  0.00    +0.000 C 
BRANCH  27  28
ATOM     28  C   UNL     1      39.153   5.982  17.768  0.00  0.00    +0.000 A 
ATOM     29  C   UNL     1      40.076   5.766  18.754  0.00  0.00    +0.000 A 
ATOM     30  C   UNL     1      40.068   6.531  19.903  0.00  0.00    +0.000 A 
ATOM     31  C   UNL     1      39.111   7.506  20.025  0.00  0.00    +0.000 A 
ATOM     32  C   UNL     1      38.181   7.723  19.030  0.00  0.00    +0.000 A 
ATOM     33  C   UNL     1      38.200   6.957  17.892  0.00  0.00    +0.000 A 
ENDBRANCH  27  28
ENDBRANCH  26  27
ENDBRANCH   5  26
TORSDOF 6
ENDMDL
MODEL 2
REMARK VINA RESULT:      -7.6     25.967     29.033
REMARK  Name = 
REMARK  6 active torsions:
REMARK  status: ('A' for Active; 'I' for Inactive)
REMARK    1  A    between atoms: C_5  and  S_6
REMARK    2  A    between atoms: S_6  and  C_7
REMARK    3  A    between atoms: C_8  and  N_9
REMARK    4  A    between atoms: N_21  and  C_22
REMARK    5  A    between atoms: C_22  and  C_23
REMARK    6  A    between atoms: C_23  and  C_24
REMARK                            x       y       z     vdW  Elec       q    Type
REMARK                         _______ _______ _______ _____ _____    ______ ____
ROOT
ATOM      1  C   UNL     1      26.227  14.071  40.483  0.00  0.00    +0.000 C 
ATOM      2  C   UNL     1      27.493  14.376  40.119  0.00  0.00    +0.000 C 
ATOM      3  C   UNL     1      27.496  15.020  38.821  0.00  0.00    +0.000 C 
ATOM      4  O   UNL     1      28.502  15.438  38.175  0.00  0.00    +0.000 OA
ATOM      5  N   UNL     1      26.167  15.123  38.348  0.00  0.00    +0.000 N 
ATOM      6  C   UNL     1      25.373  14.521  39.406  0.00  0.00    +0.000 C 
ATOM      7  O   UNL     1      24.141  14.442  39.321  0.00  0.00    +0.000 OA
ENDROOT
BRANCH   2   8
ATOM      8  N   UNL     1      28.646  14.115  40.877  0.00  0.00    +0.000 N 
ATOM      9  C   UNL     1      28.692  14.385  42.299  0.00  0.00    +0.000 C 
ATOM     10  C   UNL     1      29.690  13.554  43.036  0.00  0.00    +0.000 C 
ATOM     11  C   UNL     1      30.010  12.268  42.373  0.00  0.00    +0.000 A 
ATOM     12  C   UNL     1      30.211  11.110  43.109  0.00  0.00    +0.000 A 
ATOM     13  C   UNL     1      30.505   9.957  42.420  0.00  0.00    +0.000 A 
ATOM     14  C   UNL     1      30.604   9.926  41.050  0.00  0.00    +0.000 A 
ATOM     15  C   UNL     1      30.395  11.104  40.359  0.00  0.00    +0.000 A 
ATOM     16  C   UNL     1      30.097  12.283  40.999  0.00  0.00    +0.000 A 
ATOM     17  C   UNL     1      29.867  13.556  40.280  0.00  0.00    +0.000 C 
ENDBRANCH   2   8
BRANCH   1  18
ATOM     18  S   UNL     1      25.879  13.280  42.012  0.00  0.00    +0.000 S 
BRANCH  18  23
ATOM     19  C   UNL     1      27.522   7.464  42.241  0.00  0.00    +0.000 C 
ATOM     20  C   UNL     1      27.119   8.871  42.237  0.00  0.00    +0.000 A 
ATOM     21  C   UNL     1      26.783   9.601  43.344  0.00  0.00    +0.000 A 
ATOM     22  C   UNL     1      26.411  10.912  43.299  0.00  0.00    +0.000 A 
ATOM     23  C   UNL     1      26.361  11.575  42.083  0.00  0.00    +0.000 A 
ATOM     24  C   UNL     1      26.696  10.847  40.983  0.00  0.00    +0.000 A 
ATOM     25  C   UNL     1      27.067   9.537  41.018  0.00  0.00    +0.000 A 
ENDBRANCH  18  23
ENDBRANCH   1  18
BRANCH   5  26
ATOM     26  C   UNL     1      25.675  15.690  37.105  0.00  0.00    +0.000 C 
BRANCH  26  27
ATOM     27  C   UNL     1      26.501  15.078  35.980  0.00  0.00    +0.000 C 
BRANCH  27  28
ATOM     28  C   UNL     1      25.877  15.386  34.678  0.00  0.00    +0.000 A 
ATOM     29  C   UNL     1      25.758  14.400  33.736  0.00  0.00    +0.000 A 
ATOM     30  C   UNL     1      25.178  14.664  32.512  0.00  0.00    +0.000 A 
ATOM     31  C   UNL     1      24.728  15.935  32.269  0.00  0.00    +0.000 A 
ATOM     32  C   UNL     1      24.847  16.929  33.218  0.00  0.00    +0.000 A 
ATOM     33  C   UNL     1      25.425  16.655  34.432  0.00  0.00    +0.000 A 
ENDBRANCH  27  28
ENDBRANCH  26  27
ENDBRANCH   5  26
TORSDOF 6
ENDMDL
MODEL 3
REMARK VINA RESULT:      -7.5      3.398      9.039
REMARK  Name = 
REMARK  6 active torsions:
REMARK  status: ('A' for Active; 'I' for Inactive)
REMARK    1  A    between atoms: C_5  and  S_6
REMARK    2  A    between atoms: S_6  and  C_7
REMARK    3  A    between atoms: C_8  and  N_9
REMARK    4  A    between atoms: N_21  and  C_22
REMARK    5  A    between atoms: C_22  and  C_23
REMARK    6  A    between atoms: C_23  and  C_24
REMARK                            x       y       z     vdW  Elec       q    Type
REMARK                         _______ _______ _______ _____ _____    ______ ____
ROOT
ATOM      1  C   UNL     1      37.829   5.617  16.026  0.00  0.00    +0.000 C 
ATOM      2  C   UNL     1      37.239   5.635  14.808  0.00  0.00    +0.000 C 
ATOM      3  C   UNL     1      36.845   4.293  14.427  0.00  0.00    +0.000 C 
ATOM      4  O   UNL     1      36.270   3.940  13.356  0.00  0.00    +0.000 OA
ATOM      5  N   UNL     1      37.206   3.391  15.455  0.00  0.00    +0.000 N 
ATOM      6  C   UNL     1      37.826   4.237  16.460  0.00  0.00    +0.000 C 
ATOM      7  O   UNL     1      38.266   3.766  17.516  0.00  0.00    +0.000 OA
ENDROOT
BRANCH   2   8
ATOM      8  N   UNL     1      37.031   6.777  14.019  0.00  0.00    +0.000 N 
ATOM      9  C   UNL     1      38.042   7.250  13.095  0.00  0.00    +0.000 C 
ATOM     10  C   UNL     1      37.491   8.054  11.964  0.00  0.00    +0.000 C 
ATOM     11  C   UNL     1      36.076   7.752  11.643  0.00  0.00    +0.000 A 
ATOM     12  C   UNL     1      35.627   7.719  10.331  0.00  0.00    +0.000 A 
ATOM     13  C   UNL     1      34.300   7.433  10.116  0.00  0.00    +0.000 A 
ATOM     14  C   UNL     1      33.426   7.184  11.147  0.00  0.00    +0.000 A 
ATOM     15  C   UNL     1      33.919   7.227  12.437  0.00  0.00    +0.000 A 
ATOM     16  C   UNL     1      35.237   7.508  12.707  0.00  0.00    +0.000 A 
ATOM     17  C   UNL     1      35.788   7.557  14.080  0.00  0.00    +0.000 C 
ENDBRANCH   2   8
BRANCH   1  18
ATOM     18  S   UNL     1      38.422   7.089  16.777  0.00  0.00    +0.000 S 
BRANCH  18  23
ATOM     19  C   UNL     1      42.788   6.223  20.872  0.00  0.00    +0.000 C 
ATOM     20  C   UNL     1      41.697   6.435  19.919  0.00  0.00    +0.000 A 
ATOM     21  C   UNL     1      40.379   6.600  20.249  0.00  0.00    +0.000 A 
ATOM     22  C   UNL     1      39.391   6.795  19.331  0.00  0.00    +0.000 A 
ATOM     23  C   UNL     1      39.700   6.836  17.980  0.00  0.00    +0.000 A 
ATOM     24  C   UNL     1      41.011   6.672  17.654  0.00  0.00    +0.000 A 
ATOM     25  C   UNL     1      42.005   6.476  18.564  0.00  0.00    +0.000 A 
ENDBRANCH  18  23
ENDBRANCH   1  18
BRANCH   5  26
ATOM     26  C   UNL     1      37.016   1.953  15.523  0.00  0.00    +0.000 C 
BRANCH  26  27
ATOM     27  C   UNL     1      35.696   1.713  16.245  0.00  0.00    +0.000 C 
BRANCH  27  28
ATOM     28  C   UNL     1      35.431   0.263  16.333  0.00  0.00    +0.000 A 
ATOM     29  C   UNL     1      34.524  -0.204  17.245  0.00  0.00    +0.000 A 
ATOM     30  C   UNL     1      34.259  -1.555  17.345  0.00  0.00    +0.000 A 
ATOM     31  C   UNL     1      34.929  -2.410  16.508  0.00  0.00    +0.000 A 
ATOM     32  C   UNL     1      35.843  -1.939  15.588  0.00  0.00    +0.000 A 
ATOM     33  C   UNL     1      36.097  -0.593  15.498  0.00  0.00    +0.000 A 
ENDBRANCH  27  28
ENDBRANCH  26  27
ENDBRANCH   5  26
TORSDOF 6
ENDMDL
MODEL 4
REMARK VINA RESULT:      -7.4      2.962      8.800
REMARK  Name = 
REMARK  6 active torsions:
REMARK  status: ('A' for Active; 'I' for Inactive)
REMARK    1  A    between atoms: C_5  and  S_6
REMARK    2  A    between atoms: S_6  and  C_7
REMARK    3  A    between atoms: C_8  and  N_9
REMARK    4  A    between atoms: N_21  and  C_22
REMARK    5  A    between atoms: C_22  and  C_23
REMARK    6  A    between atoms: C_23  and  C_24
REMARK                            x       y       z     vdW  Elec       q    Type
REMARK                         _______ _______ _______ _____ _____    ______ ____
ROOT
ATOM      1  C   UNL     1      37.621   4.250  16.318  0.00  0.00    +0.000 C 
ATOM      2  C   UNL     1      36.882   4.437  15.200  0.00  0.00    +0.000 C 
ATOM      3  C   UNL     1      35.762   3.518  15.184  0.00  0.00    +0.000 C 
ATOM      4  O   UNL     1      34.869   3.414  14.292  0.00  0.00    +0.000 OA
ATOM      5  N   UNL     1      35.801   2.715  16.348  0.00  0.00    +0.000 N 
ATOM      6  C   UNL     1      36.978   3.185  17.058  0.00  0.00    +0.000 C 
ATOM      7  O   UNL     1      37.318   2.692  18.140  0.00  0.00    +0.000 OA
ENDROOT
BRANCH   2   8
ATOM      8  N   UNL     1      37.148   5.381  14.195  0.00  0.00    +0.000 N 
ATOM      9  C   UNL     1      38.024   5.073  13.084  0.00  0.00    +0.000 C 
ATOM     10  C   UNL     1      37.755   5.890  11.863  0.00  0.00    +0.000 C 
ATOM     11  C   UNL     1      36.367   6.402  11.775  0.00  0.00    +0.000 A 
ATOM     12  C   UNL     1      35.695   6.457  10.563  0.00  0.00    +0.000 A 
ATOM     13  C   UNL     1      34.411   6.946  10.565  0.00  0.00    +0.000 A 
ATOM     14  C   UNL     1      33.789   7.373  11.713  0.00  0.00    +0.000 A 
ATOM     15  C   UNL     1      34.498   7.299  12.897  0.00  0.00    +0.000 A 
ATOM     16  C   UNL     1      35.783   6.818  12.951  0.00  0.00    +0.000 A 
ATOM     17  C   UNL     1      36.560   6.727  14.208  0.00  0.00    +0.000 C 
ENDBRANCH   2   8
BRANCH   1  18
ATOM     18  S   UNL     1      39.054   5.211  16.640  0.00  0.00    +0.000 S 
BRANCH  18  23
ATOM     19  C   UNL     1      38.398   9.285  21.062  0.00  0.00    +0.000 C 
ATOM     20  C   UNL     1      38.525   8.327  19.962  0.00  0.00    +0.000 A 
ATOM     21  C   UNL     1      37.908   8.433  18.746  0.00  0.00    +0.000 A 
ATOM     22  C   UNL     1      38.052   7.518  17.745  0.00  0.00    +0.000 A 
ATOM     23  C   UNL     1      38.860   6.408  17.934  0.00  0.00    +0.000 A 
ATOM     24  C   UNL     1      39.472   6.304  19.145  0.00  0.00    +0.000 A 
ATOM     25  C   UNL     1      39.334   7.212  20.151  0.00  0.00    +0.000 A 
ENDBRANCH  18  23
ENDBRANCH   1  18
BRANCH   5  26
ATOM     26  C   UNL     1      34.894   1.660  16.767  0.00  0.00    +0.000 C 
BRANCH  26  27
ATOM     27  C   UNL     1      35.376   0.373  16.109  0.00  0.00    +0.000 C 
BRANCH  27  28
ATOM     28  C   UNL     1      36.175  -0.412  17.072  0.00  0.00    +0.000 A 
ATOM     29  C   UNL     1      35.818  -0.426  18.393  0.00  0.00    +0.000 A 
ATOM     30  C   UNL     1      36.549  -1.153  19.311  0.00  0.00    +0.000 A 
ATOM     31  C   UNL     1      37.638  -1.854  18.862  0.00  0.00    +0.000 A 
ATOM     32  C   UNL     1      37.998  -1.839  17.530  0.00  0.00    +0.000 A 
ATOM     33  C   UNL     1      37.263  -1.114  16.627  0.00  0.00    +0.000 A 
ENDBRANCH  27  28
ENDBRANCH  26  27
ENDBRANCH   5  26
TORSDOF 6
ENDMDL
MODEL 5
REMARK VINA RESULT:      -7.4      3.529      7.060
REMARK  Name = 
REMARK  6 active torsions:
REMARK  status: ('A' for Active; 'I' for Inactive)
REMARK    1  A    between atoms: C_5  and  S_6
REMARK    2  A    between atoms: S_6  and  C_7
REMARK    3  A    between atoms: C_8  and  N_9
REMARK    4  A    between atoms: N_21  and  C_22
REMARK    5  A    between atoms: C_22  and  C_23
REMARK    6  A    between atoms: C_23  and  C_24
REMARK                            x       y       z     vdW  Elec       q    Type
REMARK                         _______ _______ _______ _____ _____    ______ ____
ROOT
ATOM      1  C   UNL     1      36.669   5.421  13.891  0.00  0.00    +0.000 C 
ATOM      2  C   UNL     1      37.493   6.101  14.721  0.00  0.00    +0.000 C 
ATOM      3  C   UNL     1      36.980   7.438  14.945  0.00  0.00    +0.000 C 
ATOM      4  O   UNL     1      37.494   8.344  15.665  0.00  0.00    +0.000 OA
ATOM      5  N   UNL     1      35.777   7.604  14.220  0.00  0.00    +0.000 N 
ATOM      6  C   UNL     1      35.589   6.324  13.558  0.00  0.00    +0.000 C 
ATOM      7  O   UNL     1      34.614   6.115  12.826  0.00  0.00    +0.000 OA
ENDROOT
BRANCH   2   8
ATOM      8  N   UNL     1      38.674   5.598  15.290  0.00  0.00    +0.000 N 
ATOM      9  C   UNL     1      39.970   5.875  14.707  0.00  0.00    +0.000 C 
ATOM     10  C   UNL     1      41.096   5.797  15.684  0.00  0.00    +0.000 C 
ATOM     11  C   UNL     1      40.693   6.039  17.089  0.00  0.00    +0.000 A 
ATOM     12  C   UNL     1      41.504   6.755  17.958  0.00  0.00    +0.000 A 
ATOM     13  C   UNL     1      41.059   6.934  19.246  0.00  0.00    +0.000 A 
ATOM     14  C   UNL     1      39.858   6.433  19.685  0.00  0.00    +0.000 A 
ATOM     15  C   UNL     1      39.084   5.727  18.784  0.00  0.00    +0.000 A 
ATOM     16  C   UNL     1      39.481   5.519  17.485  0.00  0.00    +0.000 A 
ATOM     17  C   UNL     1      38.668   4.767  16.502  0.00  0.00    +0.000 C 
ENDBRANCH   2   8
BRANCH   1  18
ATOM     18  S   UNL     1      37.009   3.764  13.419  0.00  0.00    +0.000 S 
BRANCH  18  23
ATOM     19  C   UNL     1      34.792  -0.426  17.175  0.00  0.00    +0.000 C 
ATOM     20  C   UNL     1      35.297   0.623  16.287  0.00  0.00    +0.000 A 
ATOM     21  C   UNL     1      34.869   1.922  16.274  0.00  0.00    +0.000 A 
ATOM     22  C   UNL     1      35.364   2.871  15.430  0.00  0.00    +0.000 A 
ATOM     23  C   UNL     1      36.357   2.538  14.522  0.00  0.00    +0.000 A 
ATOM     24  C   UNL     1      36.781   1.245  14.537  0.00  0.00    +0.000 A 
ATOM     25  C   UNL     1      36.292   0.291  15.375  0.00  0.00    +0.000 A 
ENDBRANCH  18  23
ENDBRANCH   1  18
BRANCH   5  26
ATOM     26  C   UNL     1      34.909   8.765  14.135  0.00  0.00    +0.000 C 
BRANCH  26  27
ATOM     27  C   UNL     1      33.705   8.486  15.026  0.00  0.00    +0.000 C 
BRANCH  27  28
ATOM     28  C   UNL     1      33.584   9.544  16.049  0.00  0.00    +0.000 A 
ATOM     29  C   UNL     1      32.978   9.262  17.243  0.00  0.00    +0.000 A 
ATOM     30  C   UNL     1      32.854  10.235  18.214  0.00  0.00    +0.000 A 
ATOM     31  C   UNL     1      33.354  11.484  17.948  0.00  0.00    +0.000 A 
ATOM     32  C   UNL     1      33.965  11.767  16.745  0.00  0.00    +0.000 A 
ATOM     33  C   UNL     1      34.083  10.792  15.787  0.00  0.00    +0.000 A 
ENDBRANCH  27  28
ENDBRANCH  26  27
ENDBRANCH   5  26
TORSDOF 6
ENDMDL
MODEL 6
REMARK VINA RESULT:      -7.3      1.973      7.434
REMARK  Name = 
REMARK  6 active torsions:
REMARK  status: ('A' for Active; 'I' for Inactive)
REMARK    1  A    between atoms: C_5  and  S_6
REMARK    2  A    between atoms: S_6  and  C_7
REMARK    3  A    between atoms: C_8  and  N_9
REMARK    4  A    between atoms: N_21  and  C_22
REMARK    5  A    between atoms: C_22  and  C_23
REMARK    6  A    between atoms: C_23  and  C_24
REMARK                            x       y       z     vdW  Elec       q    Type
REMARK                         _______ _______ _______ _____ _____    ______ ____
ROOT
ATOM      1  C   UNL     1      37.543   2.190  15.009  0.00  0.00    +0.000 C 
ATOM      2  C   UNL     1      38.138   1.114  14.443  0.00  0.00    +0.000 C 
ATOM      3  C   UNL     1      37.436  -0.097  14.820  0.00  0.00    +0.000 C 
ATOM      4  O   UNL     1      37.716  -1.282  14.474  0.00  0.00    +0.000 OA
ATOM      5  N   UNL     1      36.351   0.236  15.663  0.00  0.00    +0.000 N 
ATOM      6  C   UNL     1      36.427   1.682  15.776  0.00  0.00    +0.000 C 
ATOM      7  O   UNL     1      35.612   2.319  16.454  0.00  0.00    +0.000 OA
ENDROOT
BRANCH   2   8
ATOM      8  N   UNL     1      39.267   1.150  13.609  0.00  0.00    +0.000 N 
ATOM      9  C   UNL     1      40.599   1.325  14.151  0.00  0.00    +0.000 C 
ATOM     10  C   UNL     1      41.678   0.773  13.278  0.00  0.00    +0.000 C 
ATOM     11  C   UNL     1      41.228  -0.315  12.379  0.00  0.00    +0.000 A 
ATOM     12  C   UNL     1      42.036  -1.412  12.116  0.00  0.00    +0.000 A 
ATOM     13  C   UNL     1      41.546  -2.378  11.270  0.00  0.00    +0.000 A 
ATOM     14  C   UNL     1      40.305  -2.287  10.690  0.00  0.00    +0.000 A 
ATOM     15  C   UNL     1      39.535  -1.176  10.982  0.00  0.00    +0.000 A 
ATOM     16  C   UNL     1      39.976  -0.182  11.821  0.00  0.00    +0.000 A 
ATOM     17  C   UNL     1      39.169   1.015  12.150  0.00  0.00    +0.000 C 
ENDBRANCH   2   8
BRANCH   1  18
ATOM     18  S   UNL     1      38.153   3.815  14.748  0.00  0.00    +0.000 S 
BRANCH  18  23
ATOM     19  C   UNL     1      40.407   6.477  19.689  0.00  0.00    +0.000 C 
ATOM     20  C   UNL     1      39.826   5.810  18.523  0.00  0.00    +0.000 A 
ATOM     21  C   UNL     1      38.757   4.957  18.550  0.00  0.00    +0.000 A 
ATOM     22  C   UNL     1      38.244   4.353  17.440  0.00  0.00    +0.000 A 
ATOM     23  C   UNL     1      38.811   4.595  16.198  0.00  0.00    +0.000 A 
ATOM     24  C   UNL     1      39.874   5.444  16.173  0.00  0.00    +0.000 A 
ATOM     25  C   UNL     1      40.393   6.050  17.276  0.00  0.00    +0.000 A 
ENDBRANCH  18  23
ENDBRANCH   1  18
BRANCH   5  26
ATOM     26  C   UNL     1      35.371  -0.637  16.286  0.00  0.00    +0.000 C 
BRANCH  26  27
ATOM     27  C   UNL     1      35.935  -1.041  17.642  0.00  0.00    +0.000 C 
BRANCH  27  28
ATOM     28  C   UNL     1      36.765  -2.253  17.498  0.00  0.00    +0.000 A 
ATOM     29  C   UNL     1      36.258  -3.346  16.849  0.00  0.00    +0.000 A 
ATOM     30  C   UNL     1      37.016  -4.490  16.700  0.00  0.00    +0.000 A 
ATOM     31  C   UNL     1      38.284  -4.498  17.221  0.00  0.00    +0.000 A 
ATOM     32  C   UNL     1      38.796  -3.397  17.875  0.00  0.00    +0.000 A 
ATOM     33  C   UNL     1      38.033  -2.264  18.015  0.00  0.00    +0.000 A 
ENDBRANCH  27  28
ENDBRANCH  26  27
ENDBRANCH   5  26
TORSDOF 6
ENDMDL
MODEL 7
REMARK VINA RESULT:      -7.3      2.047      2.933
REMARK  Name = 
REMARK  6 active torsions:
REMARK  status: ('A' for Active; 'I' for Inactive)
REMARK    1  A    between atoms: C_5  and  S_6
REMARK    2  A    between atoms: S_6  and  C_7
REMARK    3  A    between atoms: C_8  and  N_9
REMARK    4  A    between atoms: N_21  and  C_22
REMARK    5  A    between atoms: C_22  and  C_23
REMARK    6  A    between atoms: C_23  and  C_24
REMARK                            x       y       z     vdW  Elec       q    Type
REMARK                         _______ _______ _______ _____ _____    ______ ____
ROOT
ATOM      1  C   UNL     1      38.847   3.273  14.158  0.00  0.00    +0.000 C 
ATOM      2  C   UNL     1      37.962   2.542  14.875  0.00  0.00    +0.000 C 
ATOM      3  C   UNL     1      37.606   3.246  16.091  0.00  0.00    +0.000 C 
ATOM      4  O   UNL     1      36.806   2.859  16.993  0.00  0.00    +0.000 OA
ATOM      5  N   UNL     1      38.301   4.476  16.139  0.00  0.00    +0.000 N 
ATOM      6  C   UNL     1      39.082   4.484  14.914  0.00  0.00    +0.000 C 
ATOM      7  O   UNL     1      39.823   5.432  14.628  0.00  0.00    +0.000 OA
ENDROOT
BRANCH   2   8
ATOM      8  N   UNL     1      37.453   1.287  14.507  0.00  0.00    +0.000 N 
ATOM      9  C   UNL     1      36.940   1.041  13.175  0.00  0.00    +0.000 C 
ATOM     10  C   UNL     1      36.992  -0.395  12.768  0.00  0.00    +0.000 C 
ATOM     11  C   UNL     1      38.031  -1.183  13.471  0.00  0.00    +0.000 A 
ATOM     12  C   UNL     1      38.765  -2.157  12.811  0.00  0.00    +0.000 A 
ATOM     13  C   UNL     1      39.710  -2.846  13.534  0.00  0.00    +0.000 A 
ATOM     14  C   UNL     1      39.939  -2.599  14.865  0.00  0.00    +0.000 A 
ATOM     15  C   UNL     1      39.184  -1.619  15.481  0.00  0.00    +0.000 A 
ATOM     16  C   UNL     1      38.228  -0.901  14.804  0.00  0.00    +0.000 A 
ATOM     17  C   UNL     1      37.408   0.154  15.442  0.00  0.00    +0.000 C 
ENDBRANCH   2   8
BRANCH   1  18
ATOM     18  S   UNL     1      39.479   2.698  12.625  0.00  0.00    +0.000 S 
BRANCH  18  23
ATOM     19  C   UNL     1      43.501  -1.793  13.112  0.00  0.00    +0.000 C 
ATOM     20  C   UNL     1      42.523  -0.717  12.943  0.00  0.00    +0.000 A 
ATOM     21  C   UNL     1      41.913  -0.379  11.766  0.00  0.00    +0.000 A 
ATOM     22  C   UNL     1      41.006   0.632  11.650  0.00  0.00    +0.000 A 
ATOM     23  C   UNL     1      40.657   1.380  12.764  0.00  0.00    +0.000 A 
ATOM     24  C   UNL     1      41.266   1.042  13.934  0.00  0.00    +0.000 A 
ATOM     25  C   UNL     1      42.173   0.035  14.059  0.00  0.00    +0.000 A 
ENDBRANCH  18  23
ENDBRANCH   1  18
BRANCH   5  26
ATOM     26  C   UNL     1      38.267   5.512  17.157  0.00  0.00    +0.000 C 
BRANCH  26  27
ATOM     27  C   UNL     1      39.047   4.983  18.354  0.00  0.00    +0.000 C 
BRANCH  27  28
ATOM     28  C   UNL     1      40.111   5.940  18.720  0.00  0.00    +0.000 A 
ATOM     29  C   UNL     1      40.023   6.630  19.898  0.00  0.00    +0.000 A 
ATOM     30  C   UNL     1      41.007   7.529  20.261  0.00  0.00    +0.000 A 
ATOM     31  C   UNL     1      42.066   7.708  19.409  0.00  0.00    +0.000 A 
ATOM     32  C   UNL     1      42.155   7.011  18.222  0.00  0.00    +0.000 A 
ATOM     33  C   UNL     1      41.172   6.120  17.872  0.00  0.00    +0.000 A 
ENDBRANCH  27  28
ENDBRANCH  26  27
ENDBRANCH   5  26
TORSDOF 6
ENDMDL
MODEL 8
REMARK VINA RESULT:      -7.2      3.256      9.590
REMARK  Name = 
REMARK  6 active torsions:
REMARK  status: ('A' for Active; 'I' for Inactive)
REMARK    1  A    between atoms: C_5  and  S_6
REMARK    2  A    between atoms: S_6  and  C_7
REMARK    3  A    between atoms: C_8  and  N_9
REMARK    4  A    between atoms: N_21  and  C_22
REMARK    5  A    between atoms: C_22  and  C_23
REMARK    6  A    between atoms: C_23  and  C_24
REMARK                            x       y       z     vdW  Elec       q    Type
REMARK                         _______ _______ _______ _____ _____    ______ ____
ROOT
ATOM      1  C   UNL     1      38.099   6.602  15.566  0.00  0.00    +0.000 C 
ATOM      2  C   UNL     1      38.647   5.599  16.290  0.00  0.00    +0.000 C 
ATOM      3  C   UNL     1      38.156   4.320  15.817  0.00  0.00    +0.000 C 
ATOM      4  O   UNL     1      38.457   3.173  16.262  0.00  0.00    +0.000 OA
ATOM      5  N   UNL     1      37.257   4.531  14.746  0.00  0.00    +0.000 N 
ATOM      6  C   UNL     1      37.228   5.976  14.595  0.00  0.00    +0.000 C 
ATOM      7  O   UNL     1      36.529   6.520  13.732  0.00  0.00    +0.000 OA
ENDROOT
BRANCH   2   8
ATOM      8  N   UNL     1      39.559   5.758  17.345  0.00  0.00    +0.000 N 
ATOM      9  C   UNL     1      40.965   6.004  17.097  0.00  0.00    +0.000 C 
ATOM     10  C   UNL     1      41.657   6.707  18.217  0.00  0.00    +0.000 C 
ATOM     11  C   UNL     1      40.756   7.522  19.065  0.00  0.00    +0.000 A 
ATOM     12  C   UNL     1      41.158   8.751  19.568  0.00  0.00    +0.000 A 
ATOM     13  C   UNL     1      40.265   9.446  20.348  0.00  0.00    +0.000 A 
ATOM     14  C   UNL     1      39.011   8.964  20.636  0.00  0.00    +0.000 A 
ATOM     15  C   UNL     1      38.655   7.735  20.112  0.00  0.00    +0.000 A 
ATOM     16  C   UNL     1      39.510   7.000  19.327  0.00  0.00    +0.000 A 
ATOM     17  C   UNL     1      39.149   5.684  18.754  0.00  0.00    +0.000 C 
ENDBRANCH   2   8
BRANCH   1  18
ATOM     18  S   UNL     1      38.490   8.283  15.888  0.00  0.00    +0.000 S 
BRANCH  18  23
ATOM     19  C   UNL     1      33.797  11.638  17.704  0.00  0.00    +0.000 C 
ATOM     20  C   UNL     1      34.961  10.845  17.304  0.00  0.00    +0.000 A 
ATOM     21  C   UNL     1      36.174  10.845  17.936  0.00  0.00    +0.000 A 
ATOM     22  C   UNL     1      37.236  10.092  17.532  0.00  0.00    +0.000 A 
ATOM     23  C   UNL     1      37.116   9.267  16.424  0.00  0.00    +0.000 A 
ATOM     24  C   UNL     1      35.908   9.269  15.796  0.00  0.00    +0.000 A 
ATOM     25  C   UNL     1      34.843  10.018  16.192  0.00  0.00    +0.000 A 
ENDBRANCH  18  23
ENDBRANCH   1  18
BRANCH   5  26
ATOM     26  C   UNL     1      36.519   3.558  13.961  0.00  0.00    +0.000 C 
BRANCH  26  27
ATOM     27  C   UNL     1      35.252   3.227  14.739  0.00  0.00    +0.000 C 
BRANCH  27  28
ATOM     28  C   UNL     1      35.383   1.896  15.365  0.00  0.00    +0.000 A 
ATOM     29  C   UNL     1      34.817   1.667  16.590  0.00  0.00    +0.000 A 
ATOM     30  C   UNL     1      34.926   0.430  17.194  0.00  0.00    +0.000 A 
ATOM     31  C   UNL     1      35.615  -0.554  16.534  0.00  0.00    +0.000 A 
ATOM     32  C   UNL     1      36.186  -0.323  15.300  0.00  0.00    +0.000 A 
ATOM     33  C   UNL     1      36.070   0.910  14.708  0.00  0.00    +0.000 A 
ENDBRANCH  27  28
ENDBRANCH  26  27
ENDBRANCH   5  26
TORSDOF 6
ENDMDL
MODEL 9
REMARK VINA RESULT:      -7.1      1.871      4.589
REMARK  Name = 
REMARK  6 active torsions:
REMARK  status: ('A' for Active; 'I' for Inactive)
REMARK    1  A    between atoms: C_5  and  S_6
REMARK    2  A    between atoms: S_6  and  C_7
REMARK    3  A    between atoms: C_8  and  N_9
REMARK    4  A    between atoms: N_21  and  C_22
REMARK    5  A    between atoms: C_22  and  C_23
REMARK    6  A    between atoms: C_23  and  C_24
REMARK                            x       y       z     vdW  Elec       q    Type
REMARK                         _______ _______ _______ _____ _____    ______ ____
ROOT
ATOM      1  C   UNL     1      37.273   1.471  15.564  0.00  0.00    +0.000 C 
ATOM      2  C   UNL     1      38.313   1.665  14.721  0.00  0.00    +0.000 C 
ATOM      3  C   UNL     1      38.784   3.032  14.821  0.00  0.00    +0.000 C 
ATOM      4  O   UNL     1      39.739   3.561  14.178  0.00  0.00    +0.000 OA
ATOM      5  N   UNL     1      38.002   3.728  15.770  0.00  0.00    +0.000 N 
ATOM      6  C   UNL     1      37.050   2.733  16.235  0.00  0.00    +0.000 C 
ATOM      7  O   UNL     1      36.197   3.006  17.088  0.00  0.00    +0.000 OA
ENDROOT
BRANCH   2   8
ATOM      8  N   UNL     1      38.867   0.695  13.871  0.00  0.00    +0.000 N 
ATOM      9  C   UNL     1      38.386   0.516  12.517  0.00  0.00    +0.000 C 
ATOM     10  C   UNL     1      39.396  -0.086  11.596  0.00  0.00    +0.000 C 
ATOM     11  C   UNL     1      40.800   0.144  12.010  0.00  0.00    +0.000 A 
ATOM     12  C   UNL     1      41.792   0.403  11.075  0.00  0.00    +0.000 A 
ATOM     13  C   UNL     1      43.070   0.605  11.539  0.00  0.00    +0.000 A 
ATOM     14  C   UNL     1      43.383   0.556  12.875  0.00  0.00    +0.000 A 
ATOM     15  C   UNL     1      42.362   0.295  13.769  0.00  0.00    +0.000 A 
ATOM     16  C   UNL     1      41.067   0.087  13.359  0.00  0.00    +0.000 A 
ATOM     17  C   UNL     1      39.957  -0.192  14.298  0.00  0.00    +0.000 C 
ENDBRANCH   2   8
BRANCH   1  18
ATOM     18  S   UNL     1      36.471  -0.087  15.685  0.00  0.00    +0.000 S 
BRANCH  18  23
ATOM     19  C   UNL     1      38.872  -3.823  19.791  0.00  0.00    +0.000 C 
ATOM     20  C   UNL     1      38.319  -2.942  18.760  0.00  0.00    +0.000 A 
ATOM     21  C   UNL     1      38.646  -2.975  17.432  0.00  0.00    +0.000 A 
ATOM     22  C   UNL     1      38.109  -2.136  16.502  0.00  0.00    +0.000 A 
ATOM     23  C   UNL     1      37.176  -1.184  16.886  0.00  0.00    +0.000 A 
ATOM     24  C   UNL     1      36.853  -1.153  18.208  0.00  0.00    +0.000 A 
ATOM     25  C   UNL     1      37.385  -1.987  19.144  0.00  0.00    +0.000 A 
ENDBRANCH  18  23
ENDBRANCH   1  18
BRANCH   5  26
ATOM     26  C   UNL     1      38.098   5.111  16.204  0.00  0.00    +0.000 C 
BRANCH  26  27
ATOM     27  C   UNL     1      39.257   5.187  17.190  0.00  0.00    +0.000 C 
BRANCH  27  28
ATOM     28  C   UNL     1      38.987   6.230  18.200  0.00  0.00    +0.000 A 
ATOM     29  C   UNL     1      39.754   6.288  19.332  0.00  0.00    +0.000 A 
ATOM     30  C   UNL     1      39.520   7.255  20.289  0.00  0.00    +0.000 A 
ATOM     31  C   UNL     1      38.504   8.149  20.073  0.00  0.00    +0.000 A 
ATOM     32  C   UNL     1      37.731   8.090  18.931  0.00  0.00    +0.000 A 
ATOM     33  C   UNL     1      37.973   7.125  17.986  0.00  0.00    +0.000 A 
ENDBRANCH  27  28
ENDBRANCH  26  27
ENDBRANCH   5  26
TORSDOF 6
ENDMDL
MODEL 10
REMARK VINA RESULT:      -7.1      2.968      5.232
REMARK  Name = 
REMARK  6 active torsions:
REMARK  status: ('A' for Active; 'I' for Inactive)
REMARK    1  A    between atoms: C_5  and  S_6
REMARK    2  A    between atoms: S_6  and  C_7
REMARK    3  A    between atoms: C_8  and  N_9
REMARK    4  A    between atoms: N_21  and  C_22
REMARK    5  A    between atoms: C_22  and  C_23
REMARK    6  A    between atoms: C_23  and  C_24
REMARK                            x       y       z     vdW  Elec       q    Type
REMARK                         _______ _______ _______ _____ _____    ______ ____
ROOT
ATOM      1  C   UNL     1      37.822   4.158  14.194  0.00  0.00    +0.000 C 
ATOM      2  C   UNL     1      37.503   3.203  15.097  0.00  0.00    +0.000 C 
ATOM      3  C   UNL     1      37.604   3.736  16.441  0.00  0.00    +0.000 C 
ATOM      4  O   UNL     1      37.379   3.123  17.527  0.00  0.00    +0.000 OA
ATOM      5  N   UNL     1      38.006   5.090  16.378  0.00  0.00    +0.000 N 
ATOM      6  C   UNL     1      38.140   5.348  14.954  0.00  0.00    +0.000 C 
ATOM      7  O   UNL     1      38.485   6.457  14.530  0.00  0.00    +0.000 OA
ENDROOT
BRANCH   2   8
ATOM      8  N   UNL     1      37.127   1.885  14.793  0.00  0.00    +0.000 N 
ATOM      9  C   UNL     1      38.107   0.889  14.412  0.00  0.00    +0.000 C 
ATOM     10  C   UNL     1      37.677  -0.513  14.689  0.00  0.00    +0.000 C 
ATOM     11  C   UNL     1      36.676  -0.632  15.776  0.00  0.00    +0.000 A 
ATOM     12  C   UNL     1      36.719  -1.683  16.682  0.00  0.00    +0.000 A 
ATOM     13  C   UNL     1      35.755  -1.723  17.660  0.00  0.00    +0.000 A 
ATOM     14  C   UNL     1      34.771  -0.770  17.761  0.00  0.00    +0.000 A 
ATOM     15  C   UNL     1      34.769   0.258  16.837  0.00  0.00    +0.000 A 
ATOM     16  C   UNL     1      35.709   0.345  15.840  0.00  0.00    +0.000 A 
ATOM     17  C   UNL     1      35.728   1.438  14.841  0.00  0.00    +0.000 C 
ENDBRANCH   2   8
BRANCH   1  18
ATOM     18  S   UNL     1      37.797   3.832  12.470  0.00  0.00    +0.000 S 
BRANCH  18  23
ATOM     19  C   UNL     1      34.204   7.512   9.287  0.00  0.00    +0.000 C 
ATOM     20  C   UNL     1      35.091   6.601  10.013  0.00  0.00    +0.000 A 
ATOM     21  C   UNL     1      35.929   5.686   9.437  0.00  0.00    +0.000 A 
ATOM     22  C   UNL     1      36.741   4.853  10.148  0.00  0.00    +0.000 A 
ATOM     23  C   UNL     1      36.745   4.910  11.533  0.00  0.00    +0.000 A 
ATOM     24  C   UNL     1      35.911   5.821  12.104  0.00  0.00    +0.000 A 
ATOM     25  C   UNL     1      35.097   6.656  11.402  0.00  0.00    +0.000 A 
ENDBRANCH  18  23
ENDBRANCH   1  18
BRANCH   5  26
ATOM     26  C   UNL     1      38.238   6.031  17.459  0.00  0.00    +0.000 C 
BRANCH  26  27
ATOM     27  C   UNL     1      39.029   5.291  18.531  0.00  0.00    +0.000 C 
BRANCH  27  28
ATOM     28  C   UNL     1      40.340   5.942  18.725  0.00  0.00    +0.000 A 
ATOM     29  C   UNL     1      40.746   6.278  19.987  0.00  0.00    +0.000 A 
ATOM     30  C   UNL     1      41.968   6.887  20.193  0.00  0.00    +0.000 A 
ATOM     31  C   UNL     1      42.756   7.144  19.101  0.00  0.00    +0.000 A 
ATOM     32  C   UNL     1      42.346   6.805  17.828  0.00  0.00    +0.000 A 
ATOM     33  C   UNL     1      41.129   6.199  17.636  0.00  0.00    +0.000 A 
ENDBRANCH  27  28
ENDBRANCH  26  27
ENDBRANCH   5  26
TORSDOF 6
ENDMDL
