MODEL 1
REMARK VINA RESULT:      -8.1      0.000      0.000
REMARK  Name = 
REMARK  6 active torsions:
REMARK  status: ('A' for Active; 'I' for Inactive)
REMARK    1  A    between atoms: C_8  and  N_9
REMARK    2  A    between atoms: C_10  and  C_12
REMARK    3  A    between atoms: C_18  and  C_19
REMARK    4  A    between atoms: N_21  and  C_22
REMARK    5  A    between atoms: C_22  and  C_23
REMARK    6  A    between atoms: C_23  and  C_24
REMARK                            x       y       z     vdW  Elec       q    Type
REMARK                         _______ _______ _______ _____ _____    ______ ____
ROOT
ATOM      1  C   UNL     1      34.958   7.101  11.652  0.00  0.00    +0.000 C 
ATOM      2  C   UNL     1      35.258   5.729  12.529  0.00  0.00    +0.000 C 
ATOM      3  C   UNL     1      35.656   6.562  13.872  0.00  0.00    +0.000 C 
ATOM      4  C   UNL     1      36.888   6.111  14.467  0.00  0.00    +0.000 C 
ATOM      5  C   UNL     1      37.335   4.715  14.131  0.00  0.00    +0.000 A 
ATOM      6  C   UNL     1      37.291   4.454  12.807  0.00  0.00    +0.000 A 
ATOM      7  S   UNL     1      37.834   2.857  12.705  0.00  0.00    +0.000 S 
ATOM      8  C   UNL     1      38.109   2.552  14.364  0.00  0.00    +0.000 A 
ATOM      9  C   UNL     1      37.760   3.734  14.967  0.00  0.00    +0.000 A 
ATOM     10  C   UNL     1      36.803   5.613  11.972  0.00  0.00    +0.000 C 
ENDROOT
BRANCH   8  11
ATOM     11  N   UNL     1      38.594   1.335  14.980  0.00  0.00    +0.000 NA
ATOM     12  C   UNL     1      37.654   0.271  15.135  0.00  0.00    +0.000 C 
ATOM     13  O   UNL     1      36.471   0.432  14.740  0.00  0.00    +0.000 OA
BRANCH  12  14
ATOM     14  C   UNL     1      38.060  -0.990  15.746  0.00  0.00    +0.000 A 
ATOM     15  C   UNL     1      37.241  -1.695  16.602  0.00  0.00    +0.000 A 
ATOM     16  C   UNL     1      37.690  -2.888  17.147  0.00  0.00    +0.000 A 
ATOM     17  C   UNL     1      38.928  -3.404  16.869  0.00  0.00    +0.000 A 
ATOM     18  C   UNL     1      39.740  -2.694  16.012  0.00  0.00    +0.000 A 
ATOM     19  C   UNL     1      39.303  -1.509  15.465  0.00  0.00    +0.000 A 
ENDBRANCH  12  14
ENDBRANCH   8  11
BRANCH   9  20
ATOM     20  C   UNL     1      37.870   3.853  16.455  0.00  0.00    +0.000 C 
ATOM     21  O   UNL     1      37.146   3.190  17.229  0.00  0.00    +0.000 OA
ATOM     22  N   UNL     1      38.807   4.726  17.025  0.00  0.00    +0.000 NA
BRANCH  22  23
ATOM     23  C   UNL     1      38.948   4.875  18.483  0.00  0.00    +0.000 C 
BRANCH  23  24
ATOM     24  C   UNL     1      39.312   6.300  18.837  0.00  0.00    +0.000 C 
BRANCH  24  25
ATOM     25  C   UNL     1      40.761   6.411  19.136  0.00  0.00    +0.000 A 
ATOM     26  C   UNL     1      41.692   6.632  18.143  0.00  0.00    +0.000 A 
ATOM     27  C   UNL     1      43.029   6.735  18.405  0.00  0.00    +0.000 A 
ATOM     28  C   UNL     1      43.515   6.621  19.696  0.00  0.00    +0.000 A 
ATOM     29  C   UNL     1      42.608   6.401  20.697  0.00  0.00    +0.000 A 
ATOM     30  C   UNL     1      41.250   6.297  20.425  0.00  0.00    +0.000 A 
ENDBRANCH  24  25
ENDBRANCH  23  24
ENDBRANCH  22  23
ENDBRANCH   9  20
TORSDOF 6
ENDMDL
MODEL 2
REMARK VINA RESULT:      -7.9      2.861      6.115
REMARK  Name = 
REMARK  6 active torsions:
REMARK  status: ('A' for Active; 'I' for Inactive)
REMARK    1  A    between atoms: C_8  and  N_9
REMARK    2  A    between atoms: C_10  and  C_12
REMARK    3  A    between atoms: C_18  and  C_19
REMARK    4  A    between atoms: N_21  and  C_22
REMARK    5  A    between atoms: C_22  and  C_23
REMARK    6  A    between atoms: C_23  and  C_24
REMARK                            x       y       z     vdW  Elec       q    Type
REMARK                         _______ _______ _______ _____ _____    ______ ____
ROOT
ATOM      1  C   UNL     1      37.468  -2.557  20.224  0.00  0.00    +0.000 C 
ATOM      2  C   UNL     1      37.810  -1.839  18.772  0.00  0.00    +0.000 C 
ATOM      3  C   UNL     1      37.157  -0.414  19.216  0.00  0.00    +0.000 C 
ATOM      4  C   UNL     1      36.255   0.121  18.228  0.00  0.00    +0.000 C 
ATOM      5  C   UNL     1      36.422  -0.370  16.816  0.00  0.00    +0.000 A 
ATOM      6  C   UNL     1      36.515  -1.715  16.736  0.00  0.00    +0.000 A 
ATOM      7  S   UNL     1      36.690  -1.997  15.079  0.00  0.00    +0.000 S 
ATOM      8  C   UNL     1      36.639  -0.383  14.518  0.00  0.00    +0.000 A 
ATOM      9  C   UNL     1      36.485   0.349  15.667  0.00  0.00    +0.000 A 
ATOM     10  C   UNL     1      36.436  -2.413  18.072  0.00  0.00    +0.000 C 
ENDROOT
BRANCH   8  11
ATOM     11  N   UNL     1      36.737   0.091  13.154  0.00  0.00    +0.000 NA
ATOM     12  C   UNL     1      38.044   0.137  12.578  0.00  0.00    +0.000 C 
ATOM     13  O   UNL     1      39.032  -0.229  13.264  0.00  0.00    +0.000 OA
BRANCH  12  14
ATOM     14  C   UNL     1      38.232   0.602  11.208  0.00  0.00    +0.000 A 
ATOM     15  C   UNL     1      39.376   0.335  10.487  0.00  0.00    +0.000 A 
ATOM     16  C   UNL     1      39.489   0.807   9.188  0.00  0.00    +0.000 A 
ATOM     17  C   UNL     1      38.501   1.535   8.582  0.00  0.00    +0.000 A 
ATOM     18  C   UNL     1      37.360   1.798   9.308  0.00  0.00    +0.000 A 
ATOM     19  C   UNL     1      37.238   1.333  10.599  0.00  0.00    +0.000 A 
ENDBRANCH  12  14
ENDBRANCH   8  11
BRANCH   9  20
ATOM     20  C   UNL     1      36.398   1.840  15.575  0.00  0.00    +0.000 C 
ATOM     21  O   UNL     1      35.357   2.424  15.203  0.00  0.00    +0.000 OA
ATOM     22  N   UNL     1      37.506   2.633  15.911  0.00  0.00    +0.000 NA
BRANCH  22  23
ATOM     23  C   UNL     1      37.465   4.102  15.834  0.00  0.00    +0.000 C 
BRANCH  23  24
ATOM     24  C   UNL     1      38.841   4.654  15.531  0.00  0.00    +0.000 C 
BRANCH  24  25
ATOM     25  C   UNL     1      39.435   5.271  16.742  0.00  0.00    +0.000 A 
ATOM     26  C   UNL     1      40.636   5.949  16.697  0.00  0.00    +0.000 A 
ATOM     27  C   UNL     1      41.194   6.520  17.806  0.00  0.00    +0.000 A 
ATOM     28  C   UNL     1      40.571   6.443  19.040  0.00  0.00    +0.000 A 
ATOM     29  C   UNL     1      39.379   5.775  19.107  0.00  0.00    +0.000 A 
ATOM     30  C   UNL     1      38.815   5.196  17.977  0.00  0.00    +0.000 A 
ENDBRANCH  24  25
ENDBRANCH  23  24
ENDBRANCH  22  23
ENDBRANCH   9  20
TORSDOF 6
ENDMDL
MODEL 3
REMARK VINA RESULT:      -7.7      4.350      7.248
REMARK  Name = 
REMARK  6 active torsions:
REMARK  status: ('A' for Active; 'I' for Inactive)
REMARK    1  A    between atoms: C_8  and  N_9
REMARK    2  A    between atoms: C_10  and  C_12
REMARK    3  A    between atoms: C_18  and  C_19
REMARK    4  A    between atoms: N_21  and  C_22
REMARK    5  A    between atoms: C_22  and  C_23
REMARK    6  A    between atoms: C_23  and  C_24
REMARK                            x       y       z     vdW  Elec       q    Type
REMARK                         _______ _______ _______ _____ _____    ______ ____
ROOT
ATOM      1  C   UNL     1      43.371  -3.997  10.328  0.00  0.00    +0.000 C 
ATOM      2  C   UNL     1      42.048  -3.627  11.252  0.00  0.00    +0.000 C 
ATOM      3  C   UNL     1      41.688  -2.302  10.374  0.00  0.00    +0.000 C 
ATOM      4  C   UNL     1      41.441  -1.140  11.189  0.00  0.00    +0.000 C 
ATOM      5  C   UNL     1      41.046  -1.383  12.619  0.00  0.00    +0.000 A 
ATOM      6  C   UNL     1      41.850  -2.272  13.242  0.00  0.00    +0.000 A 
ATOM      7  S   UNL     1      41.203  -2.359  14.801  0.00  0.00    +0.000 S 
ATOM      8  C   UNL     1      39.911  -1.252  14.626  0.00  0.00    +0.000 A 
ATOM      9  C   UNL     1      40.023  -0.836  13.324  0.00  0.00    +0.000 A 
ATOM     10  C   UNL     1      42.950  -2.818  12.366  0.00  0.00    +0.000 C 
ENDROOT
BRANCH   8  11
ATOM     11  N   UNL     1      38.937  -0.855  15.619  0.00  0.00    +0.000 NA
ATOM     12  C   UNL     1      37.757  -1.653  15.722  0.00  0.00    +0.000 C 
ATOM     13  O   UNL     1      37.618  -2.646  14.964  0.00  0.00    +0.000 OA
BRANCH  12  14
ATOM     14  C   UNL     1      36.724  -1.322  16.697  0.00  0.00    +0.000 A 
ATOM     15  C   UNL     1      35.386  -1.267  16.368  0.00  0.00    +0.000 A 
ATOM     16  C   UNL     1      34.456  -0.946  17.344  0.00  0.00    +0.000 A 
ATOM     17  C   UNL     1      34.812  -0.678  18.640  0.00  0.00    +0.000 A 
ATOM     18  C   UNL     1      36.150  -0.736  18.962  0.00  0.00    +0.000 A 
ATOM     19  C   UNL     1      37.082  -1.055  17.999  0.00  0.00    +0.000 A 
ENDBRANCH  12  14
ENDBRANCH   8  11
BRANCH   9  20
ATOM     20  C   UNL     1      39.042   0.161  12.792  0.00  0.00    +0.000 C 
ATOM     21  O   UNL     1      38.052  -0.181  12.110  0.00  0.00    +0.000 OA
ATOM     22  N   UNL     1      39.213   1.528  13.052  0.00  0.00    +0.000 NA
BRANCH  22  23
ATOM     23  C   UNL     1      38.273   2.542  12.547  0.00  0.00    +0.000 C 
BRANCH  23  24
ATOM     24  C   UNL     1      38.061   3.627  13.580  0.00  0.00    +0.000 C 
BRANCH  24  25
ATOM     25  C   UNL     1      36.985   3.245  14.527  0.00  0.00    +0.000 A 
ATOM     26  C   UNL     1      37.265   2.711  15.767  0.00  0.00    +0.000 A 
ATOM     27  C   UNL     1      36.284   2.354  16.648  0.00  0.00    +0.000 A 
ATOM     28  C   UNL     1      34.946   2.514  16.330  0.00  0.00    +0.000 A 
ATOM     29  C   UNL     1      34.645   3.042  15.104  0.00  0.00    +0.000 A 
ATOM     30  C   UNL     1      35.646   3.403  14.212  0.00  0.00    +0.000 A 
ENDBRANCH  24  25
ENDBRANCH  23  24
ENDBRANCH  22  23
ENDBRANCH   9  20
TORSDOF 6
ENDMDL
MODEL 4
REMARK VINA RESULT:      -7.6      4.502      8.106
REMARK  Name = 
REMARK  6 active torsions:
REMARK  status: ('A' for Active; 'I' for Inactive)
REMARK    1  A    between atoms: C_8  and  N_9
REMARK    2  A    between atoms: C_10  and  C_12
REMARK    3  A    between atoms: C_18  and  C_19
REMARK    4  A    between atoms: N_21  and  C_22
REMARK    5  A    between atoms: C_22  and  C_23
REMARK    6  A    between atoms: C_23  and  C_24
REMARK                            x       y       z     vdW  Elec       q    Type
REMARK                         _______ _______ _______ _____ _____    ______ ____
ROOT
ATOM      1  C   UNL     1      42.946  -2.892   8.264  0.00  0.00    +0.000 C 
ATOM      2  C   UNL     1      42.459  -2.192   9.684  0.00  0.00    +0.000 C 
ATOM      3  C   UNL     1      41.674  -3.530  10.183  0.00  0.00    +0.000 C 
ATOM      4  C   UNL     1      40.341  -3.255  10.654  0.00  0.00    +0.000 C 
ATOM      5  C   UNL     1      40.052  -1.847  11.097  0.00  0.00    +0.000 A 
ATOM      6  C   UNL     1      40.473  -0.921  10.209  0.00  0.00    +0.000 A 
ATOM      7  S   UNL     1      40.034   0.542  10.933  0.00  0.00    +0.000 S 
ATOM      8  C   UNL     1      39.317  -0.061  12.363  0.00  0.00    +0.000 A 
ATOM      9  C   UNL     1      39.444  -1.421  12.233  0.00  0.00    +0.000 A 
ATOM     10  C   UNL     1      41.137  -1.505   8.986  0.00  0.00    +0.000 C 
ENDROOT
BRANCH   8  11
ATOM     11  N   UNL     1      38.720   0.689  13.447  0.00  0.00    +0.000 NA
ATOM     12  C   UNL     1      37.301   0.846  13.419  0.00  0.00    +0.000 C 
ATOM     13  O   UNL     1      36.643   0.337  12.477  0.00  0.00    +0.000 OA
BRANCH  12  14
ATOM     14  C   UNL     1      36.619   1.588  14.474  0.00  0.00    +0.000 A 
ATOM     15  C   UNL     1      37.244   1.943  15.651  0.00  0.00    +0.000 A 
ATOM     16  C   UNL     1      36.538   2.649  16.613  0.00  0.00    +0.000 A 
ATOM     17  C   UNL     1      35.229   3.015  16.442  0.00  0.00    +0.000 A 
ATOM     18  C   UNL     1      34.611   2.658  15.263  0.00  0.00    +0.000 A 
ATOM     19  C   UNL     1      35.305   1.957  14.302  0.00  0.00    +0.000 A 
ENDBRANCH  12  14
ENDBRANCH   8  11
BRANCH   9  20
ATOM     20  C   UNL     1      38.919  -2.308  13.318  0.00  0.00    +0.000 C 
ATOM     21  O   UNL     1      37.997  -3.129  13.118  0.00  0.00    +0.000 OA
ATOM     22  N   UNL     1      39.461  -2.238  14.610  0.00  0.00    +0.000 NA
BRANCH  22  23
ATOM     23  C   UNL     1      38.974  -3.092  15.706  0.00  0.00    +0.000 C 
BRANCH  23  24
ATOM     24  C   UNL     1      38.828  -2.285  16.978  0.00  0.00    +0.000 C 
BRANCH  24  25
ATOM     25  C   UNL     1      37.457  -1.729  17.089  0.00  0.00    +0.000 A 
ATOM     26  C   UNL     1      37.049  -1.017  18.198  0.00  0.00    +0.000 A 
ATOM     27  C   UNL     1      35.790  -0.501  18.312  0.00  0.00    +0.000 A 
ATOM     28  C   UNL     1      34.854  -0.670  17.307  0.00  0.00    +0.000 A 
ATOM     29  C   UNL     1      35.237  -1.373  16.197  0.00  0.00    +0.000 A 
ATOM     30  C   UNL     1      36.519  -1.897  16.085  0.00  0.00    +0.000 A 
ENDBRANCH  24  25
ENDBRANCH  23  24
ENDBRANCH  22  23
ENDBRANCH   9  20
TORSDOF 6
ENDMDL
MODEL 5
REMARK VINA RESULT:      -7.5      3.470      5.891
REMARK  Name = 
REMARK  6 active torsions:
REMARK  status: ('A' for Active; 'I' for Inactive)
REMARK    1  A    between atoms: C_8  and  N_9
REMARK    2  A    between atoms: C_10  and  C_12
REMARK    3  A    between atoms: C_18  and  C_19
REMARK    4  A    between atoms: N_21  and  C_22
REMARK    5  A    between atoms: C_22  and  C_23
REMARK    6  A    between atoms: C_23  and  C_24
REMARK                            x       y       z     vdW  Elec       q    Type
REMARK                         _______ _______ _______ _____ _____    ______ ____
ROOT
ATOM      1  C   UNL     1      34.121  -1.921  17.211  0.00  0.00    +0.000 C 
ATOM      2  C   UNL     1      35.688  -1.390  17.146  0.00  0.00    +0.000 C 
ATOM      3  C   UNL     1      35.324  -0.142  16.163  0.00  0.00    +0.000 C 
ATOM      4  C   UNL     1      36.208  -0.045  15.030  0.00  0.00    +0.000 C 
ATOM      5  C   UNL     1      37.555  -0.700  15.159  0.00  0.00    +0.000 A 
ATOM      6  C   UNL     1      37.482  -1.963  15.632  0.00  0.00    +0.000 A 
ATOM      7  S   UNL     1      39.097  -2.458  15.677  0.00  0.00    +0.000 S 
ATOM      8  C   UNL     1      39.839  -1.035  15.087  0.00  0.00    +0.000 A 
ATOM      9  C   UNL     1      38.779  -0.192  14.867  0.00  0.00    +0.000 A 
ATOM     10  C   UNL     1      36.075  -2.424  15.926  0.00  0.00    +0.000 C 
ENDROOT
BRANCH   8  11
ATOM     11  N   UNL     1      41.248  -0.787  14.874  0.00  0.00    +0.000 NA
ATOM     12  C   UNL     1      41.795  -1.202  13.621  0.00  0.00    +0.000 C 
ATOM     13  O   UNL     1      41.046  -1.753  12.775  0.00  0.00    +0.000 OA
BRANCH  12  14
ATOM     14  C   UNL     1      43.207  -0.989  13.325  0.00  0.00    +0.000 A 
ATOM     15  C   UNL     1      44.012  -1.981  12.805  0.00  0.00    +0.000 A 
ATOM     16  C   UNL     1      45.347  -1.711  12.546  0.00  0.00    +0.000 A 
ATOM     17  C   UNL     1      45.909  -0.485  12.788  0.00  0.00    +0.000 A 
ATOM     18  C   UNL     1      45.099   0.501  13.307  0.00  0.00    +0.000 A 
ATOM     19  C   UNL     1      43.772   0.242  13.567  0.00  0.00    +0.000 A 
ENDBRANCH  12  14
ENDBRANCH   8  11
BRANCH   9  20
ATOM     20  C   UNL     1      39.041   1.182  14.336  0.00  0.00    +0.000 C 
ATOM     21  O   UNL     1      39.283   1.394  13.128  0.00  0.00    +0.000 OA
ATOM     22  N   UNL     1      39.019   2.288  15.200  0.00  0.00    +0.000 NA
BRANCH  22  23
ATOM     23  C   UNL     1      39.271   3.656  14.721  0.00  0.00    +0.000 C 
BRANCH  23  24
ATOM     24  C   UNL     1      38.427   4.650  15.490  0.00  0.00    +0.000 C 
BRANCH  24  25
ATOM     25  C   UNL     1      39.189   5.205  16.635  0.00  0.00    +0.000 A 
ATOM     26  C   UNL     1      38.722   5.114  17.930  0.00  0.00    +0.000 A 
ATOM     27  C   UNL     1      39.414   5.622  18.994  0.00  0.00    +0.000 A 
ATOM     28  C   UNL     1      40.630   6.258  18.817  0.00  0.00    +0.000 A 
ATOM     29  C   UNL     1      41.112   6.360  17.540  0.00  0.00    +0.000 A 
ATOM     30  C   UNL     1      40.406   5.842  16.462  0.00  0.00    +0.000 A 
ENDBRANCH  24  25
ENDBRANCH  23  24
ENDBRANCH  22  23
ENDBRANCH   9  20
TORSDOF 6
ENDMDL
MODEL 6
REMARK VINA RESULT:      -7.4      4.373      6.893
REMARK  Name = 
REMARK  6 active torsions:
REMARK  status: ('A' for Active; 'I' for Inactive)
REMARK    1  A    between atoms: C_8  and  N_9
REMARK    2  A    between atoms: C_10  and  C_12
REMARK    3  A    between atoms: C_18  and  C_19
REMARK    4  A    between atoms: N_21  and  C_22
REMARK    5  A    between atoms: C_22  and  C_23
REMARK    6  A    between atoms: C_23  and  C_24
REMARK                            x       y       z     vdW  Elec       q    Type
REMARK                         _______ _______ _______ _____ _____    ______ ____
ROOT
ATOM      1  C   UNL     1      42.717   5.543  10.627  0.00  0.00    +0.000 C 
ATOM      2  C   UNL     1      42.204   4.715  11.967  0.00  0.00    +0.000 C 
ATOM      3  C   UNL     1      42.497   3.259  11.295  0.00  0.00    +0.000 C 
ATOM      4  C   UNL     1      41.393   2.345  11.435  0.00  0.00    +0.000 C 
ATOM      5  C   UNL     1      40.414   2.624  12.542  0.00  0.00    +0.000 A 
ATOM      6  C   UNL     1      40.008   3.911  12.572  0.00  0.00    +0.000 A 
ATOM      7  S   UNL     1      38.935   3.953  13.877  0.00  0.00    +0.000 S 
ATOM      8  C   UNL     1      39.027   2.315  14.361  0.00  0.00    +0.000 A 
ATOM      9  C   UNL     1      39.914   1.769  13.470  0.00  0.00    +0.000 A 
ATOM     10  C   UNL     1      40.628   4.772  11.498  0.00  0.00    +0.000 C 
ENDROOT
BRANCH   8  11
ATOM     11  N   UNL     1      38.331   1.668  15.453  0.00  0.00    +0.000 NA
ATOM     12  C   UNL     1      37.060   1.088  15.156  0.00  0.00    +0.000 C 
ATOM     13  O   UNL     1      36.609   1.162  13.984  0.00  0.00    +0.000 OA
BRANCH  12  14
ATOM     14  C   UNL     1      36.293   0.416  16.198  0.00  0.00    +0.000 A 
ATOM     15  C   UNL     1      36.286   0.850  17.507  0.00  0.00    +0.000 A 
ATOM     16  C   UNL     1      35.534   0.164  18.449  0.00  0.00    +0.000 A 
ATOM     17  C   UNL     1      34.787  -0.939  18.132  0.00  0.00    +0.000 A 
ATOM     18  C   UNL     1      34.798  -1.366  16.822  0.00  0.00    +0.000 A 
ATOM     19  C   UNL     1      35.541  -0.692  15.879  0.00  0.00    +0.000 A 
ENDBRANCH  12  14
ENDBRANCH   8  11
BRANCH   9  20
ATOM     20  C   UNL     1      40.256   0.316  13.580  0.00  0.00    +0.000 C 
ATOM     21  O   UNL     1      41.294  -0.081  14.152  0.00  0.00    +0.000 OA
ATOM     22  N   UNL     1      39.400  -0.653  13.035  0.00  0.00    +0.000 NA
BRANCH  22  23
ATOM     23  C   UNL     1      39.698  -2.092  13.121  0.00  0.00    +0.000 C 
BRANCH  23  24
ATOM     24  C   UNL     1      38.435  -2.878  13.398  0.00  0.00    +0.000 C 
BRANCH  24  25
ATOM     25  C   UNL     1      38.226  -3.034  14.858  0.00  0.00    +0.000 A 
ATOM     26  C   UNL     1      37.348  -3.965  15.371  0.00  0.00    +0.000 A 
ATOM     27  C   UNL     1      37.146  -4.117  16.714  0.00  0.00    +0.000 A 
ATOM     28  C   UNL     1      37.824  -3.334  17.632  0.00  0.00    +0.000 A 
ATOM     29  C   UNL     1      38.702  -2.404  17.145  0.00  0.00    +0.000 A 
ATOM     30  C   UNL     1      38.903  -2.252  15.779  0.00  0.00    +0.000 A 
ENDBRANCH  24  25
ENDBRANCH  23  24
ENDBRANCH  22  23
ENDBRANCH   9  20
TORSDOF 6
ENDMDL
MODEL 7
REMARK VINA RESULT:      -7.3      4.108      5.828
REMARK  Name = 
REMARK  6 active torsions:
REMARK  status: ('A' for Active; 'I' for Inactive)
REMARK    1  A    between atoms: C_8  and  N_9
REMARK    2  A    between atoms: C_10  and  C_12
REMARK    3  A    between atoms: C_18  and  C_19
REMARK    4  A    between atoms: N_21  and  C_22
REMARK    5  A    between atoms: C_22  and  C_23
REMARK    6  A    between atoms: C_23  and  C_24
REMARK                            x       y       z     vdW  Elec       q    Type
REMARK                         _______ _______ _______ _____ _____    ______ ____
ROOT
ATOM      1  C   UNL     1      37.080   9.008  12.664  0.00  0.00    +0.000 C 
ATOM      2  C   UNL     1      37.126   7.586  13.511  0.00  0.00    +0.000 C 
ATOM      3  C   UNL     1      37.946   6.805  12.338  0.00  0.00    +0.000 C 
ATOM      4  C   UNL     1      37.369   5.528  12.008  0.00  0.00    +0.000 C 
ATOM      5  C   UNL     1      36.495   4.885  13.048  0.00  0.00    +0.000 A 
ATOM      6  C   UNL     1      35.576   5.734  13.559  0.00  0.00    +0.000 A 
ATOM      7  S   UNL     1      34.742   4.780  14.678  0.00  0.00    +0.000 S 
ATOM      8  C   UNL     1      35.587   3.308  14.470  0.00  0.00    +0.000 A 
ATOM      9  C   UNL     1      36.519   3.609  13.510  0.00  0.00    +0.000 A 
ATOM     10  C   UNL     1      35.640   7.124  12.976  0.00  0.00    +0.000 C 
ENDROOT
BRANCH   8  11
ATOM     11  N   UNL     1      35.365   2.049  15.148  0.00  0.00    +0.000 NA
ATOM     12  C   UNL     1      35.980   1.887  16.427  0.00  0.00    +0.000 C 
ATOM     13  O   UNL     1      36.672   2.825  16.900  0.00  0.00    +0.000 OA
BRANCH  12  14
ATOM     14  C   UNL     1      35.807   0.649  17.178  0.00  0.00    +0.000 A 
ATOM     15  C   UNL     1      36.704   0.237  18.141  0.00  0.00    +0.000 A 
ATOM     16  C   UNL     1      36.479  -0.951  18.819  0.00  0.00    +0.000 A 
ATOM     17  C   UNL     1      35.390  -1.745  18.570  0.00  0.00    +0.000 A 
ATOM     18  C   UNL     1      34.498  -1.326  17.607  0.00  0.00    +0.000 A 
ATOM     19  C   UNL     1      34.713  -0.147  16.929  0.00  0.00    +0.000 A 
ENDBRANCH  12  14
ENDBRANCH   8  11
BRANCH   9  20
ATOM     20  C   UNL     1      37.467   2.543  13.056  0.00  0.00    +0.000 C 
ATOM     21  O   UNL     1      37.348   1.977  11.948  0.00  0.00    +0.000 OA
ATOM     22  N   UNL     1      38.531   2.149  13.879  0.00  0.00    +0.000 NA
BRANCH  22  23
ATOM     23  C   UNL     1      39.486   1.104  13.472  0.00  0.00    +0.000 C 
BRANCH  23  24
ATOM     24  C   UNL     1      39.917   0.286  14.670  0.00  0.00    +0.000 C 
BRANCH  24  25
ATOM     25  C   UNL     1      38.954  -0.813  14.926  0.00  0.00    +0.000 A 
ATOM     26  C   UNL     1      39.209  -1.800  15.855  0.00  0.00    +0.000 A 
ATOM     27  C   UNL     1      38.330  -2.818  16.099  0.00  0.00    +0.000 A 
ATOM     28  C   UNL     1      37.130  -2.905  15.416  0.00  0.00    +0.000 A 
ATOM     29  C   UNL     1      36.856  -1.935  14.490  0.00  0.00    +0.000 A 
ATOM     30  C   UNL     1      37.752  -0.902  14.245  0.00  0.00    +0.000 A 
ENDBRANCH  24  25
ENDBRANCH  23  24
ENDBRANCH  22  23
ENDBRANCH   9  20
TORSDOF 6
ENDMDL
MODEL 8
REMARK VINA RESULT:      -7.2      2.366      3.447
REMARK  Name = 
REMARK  6 active torsions:
REMARK  status: ('A' for Active; 'I' for Inactive)
REMARK    1  A    between atoms: C_8  and  N_9
REMARK    2  A    between atoms: C_10  and  C_12
REMARK    3  A    between atoms: C_18  and  C_19
REMARK    4  A    between atoms: N_21  and  C_22
REMARK    5  A    between atoms: C_22  and  C_23
REMARK    6  A    between atoms: C_23  and  C_24
REMARK                            x       y       z     vdW  Elec       q    Type
REMARK                         _______ _______ _______ _____ _____    ______ ____
ROOT
ATOM      1  C   UNL     1      38.320   3.914   7.582  0.00  0.00    +0.000 C 
ATOM      2  C   UNL     1      37.444   3.503   8.925  0.00  0.00    +0.000 C 
ATOM      3  C   UNL     1      37.954   4.799   9.771  0.00  0.00    +0.000 C 
ATOM      4  C   UNL     1      38.415   4.460  11.092  0.00  0.00    +0.000 C 
ATOM      5  C   UNL     1      37.916   3.168  11.677  0.00  0.00    +0.000 A 
ATOM      6  C   UNL     1      38.028   2.127  10.824  0.00  0.00    +0.000 A 
ATOM      7  S   UNL     1      37.412   0.827  11.710  0.00  0.00    +0.000 S 
ATOM      8  C   UNL     1      37.023   1.641  13.162  0.00  0.00    +0.000 A 
ATOM      9  C   UNL     1      37.393   2.938  12.908  0.00  0.00    +0.000 A 
ATOM     10  C   UNL     1      38.619   2.497   9.485  0.00  0.00    +0.000 C 
ENDROOT
BRANCH   8  11
ATOM     11  N   UNL     1      36.443   1.089  14.367  0.00  0.00    +0.000 NA
ATOM     12  C   UNL     1      37.349   0.564  15.339  0.00  0.00    +0.000 C 
ATOM     13  O   UNL     1      38.585   0.605  15.112  0.00  0.00    +0.000 OA
BRANCH  12  14
ATOM     14  C   UNL     1      36.847  -0.011  16.582  0.00  0.00    +0.000 A 
ATOM     15  C   UNL     1      37.164  -1.290  16.985  0.00  0.00    +0.000 A 
ATOM     16  C   UNL     1      36.653  -1.776  18.179  0.00  0.00    +0.000 A 
ATOM     17  C   UNL     1      35.835  -1.029  18.986  0.00  0.00    +0.000 A 
ATOM     18  C   UNL     1      35.523   0.249  18.577  0.00  0.00    +0.000 A 
ATOM     19  C   UNL     1      36.027   0.740  17.393  0.00  0.00    +0.000 A 
ENDBRANCH  12  14
ENDBRANCH   8  11
BRANCH   9  20
ATOM     20  C   UNL     1      37.198   3.972  13.972  0.00  0.00    +0.000 C 
ATOM     21  O   UNL     1      36.076   4.460  14.228  0.00  0.00    +0.000 OA
ATOM     22  N   UNL     1      38.293   4.425  14.723  0.00  0.00    +0.000 NA
BRANCH  22  23
ATOM     23  C   UNL     1      38.147   5.441  15.779  0.00  0.00    +0.000 C 
BRANCH  23  24
ATOM     24  C   UNL     1      38.266   4.804  17.146  0.00  0.00    +0.000 C 
BRANCH  24  25
ATOM     25  C   UNL     1      38.709   5.801  18.151  0.00  0.00    +0.000 A 
ATOM     26  C   UNL     1      39.787   5.568  18.979  0.00  0.00    +0.000 A 
ATOM     27  C   UNL     1      40.205   6.478  19.909  0.00  0.00    +0.000 A 
ATOM     28  C   UNL     1      39.557   7.691  20.062  0.00  0.00    +0.000 A 
ATOM     29  C   UNL     1      38.485   7.944  19.249  0.00  0.00    +0.000 A 
ATOM     30  C   UNL     1      38.064   7.016  18.306  0.00  0.00    +0.000 A 
ENDBRANCH  24  25
ENDBRANCH  23  24
ENDBRANCH  22  23
ENDBRANCH   9  20
TORSDOF 6
ENDMDL
MODEL 9
REMARK VINA RESULT:      -7.1      3.027      4.368
REMARK  Name = 
REMARK  6 active torsions:
REMARK  status: ('A' for Active; 'I' for Inactive)
REMARK    1  A    between atoms: C_8  and  N_9
REMARK    2  A    between atoms: C_10  and  C_12
REMARK    3  A    between atoms: C_18  and  C_19
REMARK    4  A    between atoms: N_21  and  C_22
REMARK    5  A    between atoms: C_22  and  C_23
REMARK    6  A    between atoms: C_23  and  C_24
REMARK                            x       y       z     vdW  Elec       q    Type
REMARK                         _______ _______ _______ _____ _____    ______ ____
ROOT
ATOM      1  C   UNL     1      43.296   1.852   9.847  0.00  0.00    +0.000 C 
ATOM      2  C   UNL     1      41.906   1.487  10.669  0.00  0.00    +0.000 C 
ATOM      3  C   UNL     1      41.698   3.018  11.186  0.00  0.00    +0.000 C 
ATOM      4  C   UNL     1      41.425   3.101  12.598  0.00  0.00    +0.000 C 
ATOM      5  C   UNL     1      40.878   1.867  13.259  0.00  0.00    +0.000 A 
ATOM      6  C   UNL     1      41.573   0.752  12.946  0.00  0.00    +0.000 A 
ATOM      7  S   UNL     1      40.770  -0.464  13.803  0.00  0.00    +0.000 S 
ATOM      8  C   UNL     1      39.556   0.481  14.550  0.00  0.00    +0.000 A 
ATOM      9  C   UNL     1      39.817   1.750  14.097  0.00  0.00    +0.000 A 
ATOM     10  C   UNL     1      42.729   0.997  12.007  0.00  0.00    +0.000 C 
ENDROOT
BRANCH   8  11
ATOM     11  N   UNL     1      38.506   0.041  15.443  0.00  0.00    +0.000 NA
ATOM     12  C   UNL     1      37.270  -0.351  14.845  0.00  0.00    +0.000 C 
ATOM     13  O   UNL     1      37.149  -0.300  13.594  0.00  0.00    +0.000 OA
BRANCH  12  14
ATOM     14  C   UNL     1      36.160  -0.808  15.674  0.00  0.00    +0.000 A 
ATOM     15  C   UNL     1      35.465   0.039  16.510  0.00  0.00    +0.000 A 
ATOM     16  C   UNL     1      34.419  -0.461  17.271  0.00  0.00    +0.000 A 
ATOM     17  C   UNL     1      34.042  -1.778  17.227  0.00  0.00    +0.000 A 
ATOM     18  C   UNL     1      34.741  -2.618  16.389  0.00  0.00    +0.000 A 
ATOM     19  C   UNL     1      35.781  -2.130  15.629  0.00  0.00    +0.000 A 
ENDBRANCH  12  14
ENDBRANCH   8  11
BRANCH   9  20
ATOM     20  C   UNL     1      38.941   2.877  14.546  0.00  0.00    +0.000 C 
ATOM     21  O   UNL     1      38.134   3.439  13.775  0.00  0.00    +0.000 OA
ATOM     22  N   UNL     1      39.007   3.337  15.870  0.00  0.00    +0.000 NA
BRANCH  22  23
ATOM     23  C   UNL     1      38.165   4.443  16.353  0.00  0.00    +0.000 C 
BRANCH  23  24
ATOM     24  C   UNL     1      38.358   4.644  17.841  0.00  0.00    +0.000 C 
BRANCH  24  25
ATOM     25  C   UNL     1      39.152   5.869  18.104  0.00  0.00    +0.000 A 
ATOM     26  C   UNL     1      39.492   6.744  17.094  0.00  0.00    +0.000 A 
ATOM     27  C   UNL     1      40.224   7.875  17.322  0.00  0.00    +0.000 A 
ATOM     28  C   UNL     1      40.662   8.197  18.595  0.00  0.00    +0.000 A 
ATOM     29  C   UNL     1      40.336   7.342  19.612  0.00  0.00    +0.000 A 
ATOM     30  C   UNL     1      39.592   6.194  19.375  0.00  0.00    +0.000 A 
ENDBRANCH  24  25
ENDBRANCH  23  24
ENDBRANCH  22  23
ENDBRANCH   9  20
TORSDOF 6
ENDMDL
MODEL 10
REMARK VINA RESULT:      -7.1      5.057      8.484
REMARK  Name = 
REMARK  6 active torsions:
REMARK  status: ('A' for Active; 'I' for Inactive)
REMARK    1  A    between atoms: C_8  and  N_9
REMARK    2  A    between atoms: C_10  and  C_12
REMARK    3  A    between atoms: C_18  and  C_19
REMARK    4  A    between atoms: N_21  and  C_22
REMARK    5  A    between atoms: C_22  and  C_23
REMARK    6  A    between atoms: C_23  and  C_24
REMARK                            x       y       z     vdW  Elec       q    Type
REMARK                         _______ _______ _______ _____ _____    ______ ____
ROOT
ATOM      1  C   UNL     1      34.028  15.589  14.248  0.00  0.00    +0.000 C 
ATOM      2  C   UNL     1      34.753  14.143  14.601  0.00  0.00    +0.000 C 
ATOM      3  C   UNL     1      33.408  13.281  14.276  0.00  0.00    +0.000 C 
ATOM      4  C   UNL     1      33.089  12.329  15.309  0.00  0.00    +0.000 C 
ATOM      5  C   UNL     1      34.213  11.900  16.210  0.00  0.00    +0.000 A 
ATOM      6  C   UNL     1      34.928  12.941  16.690  0.00  0.00    +0.000 A 
ATOM      7  S   UNL     1      36.101  12.199  17.655  0.00  0.00    +0.000 S 
ATOM      8  C   UNL     1      35.652  10.565  17.427  0.00  0.00    +0.000 A 
ATOM      9  C   UNL     1      34.574  10.646  16.582  0.00  0.00    +0.000 A 
ATOM     10  C   UNL     1      34.443  14.287  16.211  0.00  0.00    +0.000 C 
ENDROOT
BRANCH   8  11
ATOM     11  N   UNL     1      36.267   9.383  17.992  0.00  0.00    +0.000 NA
ATOM     12  C   UNL     1      37.400   8.852  17.303  0.00  0.00    +0.000 C 
ATOM     13  O   UNL     1      37.806   9.420  16.258  0.00  0.00    +0.000 OA
BRANCH  12  14
ATOM     14  C   UNL     1      38.080   7.663  17.805  0.00  0.00    +0.000 A 
ATOM     15  C   UNL     1      38.708   7.634  19.032  0.00  0.00    +0.000 A 
ATOM     16  C   UNL     1      39.335   6.470  19.449  0.00  0.00    +0.000 A 
ATOM     17  C   UNL     1      39.358   5.333  18.686  0.00  0.00    +0.000 A 
ATOM     18  C   UNL     1      38.727   5.369  17.462  0.00  0.00    +0.000 A 
ATOM     19  C   UNL     1      38.101   6.521  17.039  0.00  0.00    +0.000 A 
ENDBRANCH  12  14
ENDBRANCH   8  11
BRANCH   9  20
ATOM     20  C   UNL     1      33.894   9.386  16.146  0.00  0.00    +0.000 C 
ATOM     21  O   UNL     1      32.930   8.899  16.776  0.00  0.00    +0.000 OA
ATOM     22  N   UNL     1      34.332   8.710  14.998  0.00  0.00    +0.000 NA
BRANCH  22  23
ATOM     23  C   UNL     1      33.693   7.467  14.534  0.00  0.00    +0.000 C 
BRANCH  23  24
ATOM     24  C   UNL     1      34.402   6.934  13.308  0.00  0.00    +0.000 C 
BRANCH  24  25
ATOM     25  C   UNL     1      35.367   5.873  13.683  0.00  0.00    +0.000 A 
ATOM     26  C   UNL     1      34.965   4.716  14.319  0.00  0.00    +0.000 A 
ATOM     27  C   UNL     1      35.844   3.732  14.671  0.00  0.00    +0.000 A 
ATOM     28  C   UNL     1      37.196   3.852  14.402  0.00  0.00    +0.000 A 
ATOM     29  C   UNL     1      37.618   4.991  13.772  0.00  0.00    +0.000 A 
ATOM     30  C   UNL     1      36.720   5.989  13.416  0.00  0.00    +0.000 A 
ENDBRANCH  24  25
ENDBRANCH  23  24
ENDBRANCH  22  23
ENDBRANCH   9  20
TORSDOF 6
ENDMDL
