MODEL 1
REMARK VINA RESULT:      -7.7      0.000      0.000
REMARK  Name = 
REMARK  3 active torsions:
REMARK  status: ('A' for Active; 'I' for Inactive)
REMARK    1  A    between atoms: C_2  and  C_3
REMARK    2  A    between atoms: C_2  and  C_15
REMARK    3  A    between atoms: C_3  and  C_4
REMARK                            x       y       z     vdW  Elec       q    Type
REMARK                         _______ _______ _______ _____ _____    ______ ____
ROOT
ATOM      1  C   UNL     1      16.495  10.647  38.331  0.00  0.00    +0.000 C 
ENDROOT
BRANCH   1   2
ATOM      2  C   UNL     1      16.623  10.561  36.847  0.00  0.00    +0.000 A 
ATOM      3  C   UNL     1      17.441   9.636  36.234  0.00  0.00    +0.000 A 
ATOM      4  C   UNL     1      17.562   9.552  34.863  0.00  0.00    +0.000 A 
ATOM      5  C   UNL     1      16.864  10.400  34.039  0.00  0.00    +0.000 A 
ATOM      6  C   UNL     1      16.044  11.329  34.644  0.00  0.00    +0.000 A 
ATOM      7  C   UNL     1      15.921  11.414  36.015  0.00  0.00    +0.000 A 
ATOM      8  O   UNL     1      15.262  12.269  33.965  0.00  0.00    +0.000 OA
ATOM      9  C   UNL     1      14.846  12.350  32.618  0.00  0.00    +0.000 C 
ATOM     10  C   UNL     1      15.946  11.989  31.650  0.00  0.00    +0.000 C 
ATOM     11  C   UNL     1      16.194  10.483  31.612  0.00  0.00    +0.000 C 
ATOM     12  O   UNL     1      17.090  10.194  32.677  0.00  0.00    +0.000 OA
ENDBRANCH   1   2
BRANCH   1  14
ATOM     13  O   UNL     1      18.771  10.765  38.905  0.00  0.00    +0.000 OA
ATOM     14  C   UNL     1      17.710  10.105  38.969  0.00  0.00    +0.000 C 
BRANCH  14  15
ATOM     15  C   UNL     1      17.747   8.834  39.673  0.00  0.00    +0.000 A 
ATOM     16  C   UNL     1      18.642   7.837  39.357  0.00  0.00    +0.000 A 
ATOM     17  C   UNL     1      18.676   6.634  40.025  0.00  0.00    +0.000 A 
ATOM     18  C   UNL     1      17.787   6.403  41.054  0.00  0.00    +0.000 A 
ATOM     19  O   UNL     1      17.799   5.198  41.745  0.00  0.00    +0.000 OA
ATOM     20  C   UNL     1      16.895   7.380  41.380  0.00  0.00    +0.000 A 
ATOM     21  C   UNL     1      16.863   8.592  40.704  0.00  0.00    +0.000 A 
ATOM     22  O   UNL     1      15.914   9.514  41.121  0.00  0.00    +0.000 OA
ENDBRANCH  14  15
ENDBRANCH   1  14
TORSDOF 3
ENDMDL
MODEL 2
REMARK VINA RESULT:      -7.2     19.764     22.561
REMARK  Name = 
REMARK  3 active torsions:
REMARK  status: ('A' for Active; 'I' for Inactive)
REMARK    1  A    between atoms: C_2  and  C_3
REMARK    2  A    between atoms: C_2  and  C_15
REMARK    3  A    between atoms: C_3  and  C_4
REMARK                            x       y       z     vdW  Elec       q    Type
REMARK                         _______ _______ _______ _____ _____    ______ ____
ROOT
ATOM      1  C   UNL     1      27.372  22.487  26.039  0.00  0.00    +0.000 C 
ENDROOT
BRANCH   1   2
ATOM      2  C   UNL     1      28.523  22.510  26.988  0.00  0.00    +0.000 A 
ATOM      3  C   UNL     1      29.809  22.211  26.589  0.00  0.00    +0.000 A 
ATOM      4  C   UNL     1      30.876  22.232  27.462  0.00  0.00    +0.000 A 
ATOM      5  C   UNL     1      30.701  22.556  28.784  0.00  0.00    +0.000 A 
ATOM      6  C   UNL     1      29.419  22.856  29.192  0.00  0.00    +0.000 A 
ATOM      7  C   UNL     1      28.350  22.837  28.321  0.00  0.00    +0.000 A 
ATOM      8  O   UNL     1      29.055  23.207  30.497  0.00  0.00    +0.000 OA
ATOM      9  C   UNL     1      29.819  23.639  31.603  0.00  0.00    +0.000 C 
ATOM     10  C   UNL     1      31.107  22.869  31.753  0.00  0.00    +0.000 C 
ATOM     11  C   UNL     1      32.143  23.290  30.714  0.00  0.00    +0.000 C 
ATOM     12  O   UNL     1      31.873  22.533  29.542  0.00  0.00    +0.000 OA
ENDBRANCH   1   2
BRANCH   1  14
ATOM     13  O   UNL     1      26.602  24.701  25.861  0.00  0.00    +0.000 OA
ATOM     14  C   UNL     1      27.276  23.783  25.340  0.00  0.00    +0.000 C 
BRANCH  14  15
ATOM     15  C   UNL     1      27.923  24.058  24.069  0.00  0.00    +0.000 A 
ATOM     16  C   UNL     1      29.125  24.723  23.978  0.00  0.00    +0.000 A 
ATOM     17  C   UNL     1      29.738  24.983  22.773  0.00  0.00    +0.000 A 
ATOM     18  C   UNL     1      29.138  24.569  21.603  0.00  0.00    +0.000 A 
ATOM     19  O   UNL     1      29.734  24.818  20.373  0.00  0.00    +0.000 OA
ATOM     20  C   UNL     1      27.948  23.909  21.675  0.00  0.00    +0.000 A 
ATOM     21  C   UNL     1      27.332  23.648  22.892  0.00  0.00    +0.000 A 
ATOM     22  O   UNL     1      26.123  22.970  22.847  0.00  0.00    +0.000 OA
ENDBRANCH  14  15
ENDBRANCH   1  14
TORSDOF 3
ENDMDL
MODEL 3
REMARK VINA RESULT:      -7.1     19.282     23.338
REMARK  Name = 
REMARK  3 active torsions:
REMARK  status: ('A' for Active; 'I' for Inactive)
REMARK    1  A    between atoms: C_2  and  C_3
REMARK    2  A    between atoms: C_2  and  C_15
REMARK    3  A    between atoms: C_3  and  C_4
REMARK                            x       y       z     vdW  Elec       q    Type
REMARK                         _______ _______ _______ _____ _____    ______ ____
ROOT
ATOM      1  C   UNL     1      29.370  22.809  23.738  0.00  0.00    +0.000 C 
ENDROOT
BRANCH   1   2
ATOM      2  C   UNL     1      29.145  22.779  25.213  0.00  0.00    +0.000 A 
ATOM      3  C   UNL     1      30.135  22.412  26.099  0.00  0.00    +0.000 A 
ATOM      4  C   UNL     1      29.932  22.384  27.463  0.00  0.00    +0.000 A 
ATOM      5  C   UNL     1      28.717  22.724  28.002  0.00  0.00    +0.000 A 
ATOM      6  C   UNL     1      27.720  23.091  27.124  0.00  0.00    +0.000 A 
ATOM      7  C   UNL     1      27.921  23.121  25.760  0.00  0.00    +0.000 A 
ATOM      8  O   UNL     1      26.425  23.467  27.494  0.00  0.00    +0.000 OA
ATOM      9  C   UNL     1      25.878  23.866  28.733  0.00  0.00    +0.000 C 
ATOM     10  C   UNL     1      26.384  23.032  29.884  0.00  0.00    +0.000 C 
ATOM     11  C   UNL     1      27.819  23.395  30.258  0.00  0.00    +0.000 C 
ATOM     12  O   UNL     1      28.664  22.646  29.395  0.00  0.00    +0.000 OA
ENDBRANCH   1   2
BRANCH   1  14
ATOM     13  O   UNL     1      27.239  23.131  22.801  0.00  0.00    +0.000 OA
ATOM     14  C   UNL     1      28.342  23.647  23.093  0.00  0.00    +0.000 C 
BRANCH  14  15
ATOM     15  C   UNL     1      28.536  25.051  22.772  0.00  0.00    +0.000 A 
ATOM     16  C   UNL     1      28.089  26.066  23.588  0.00  0.00    +0.000 A 
ATOM     17  C   UNL     1      28.274  27.396  23.284  0.00  0.00    +0.000 A 
ATOM     18  C   UNL     1      28.931  27.741  22.121  0.00  0.00    +0.000 A 
ATOM     19  O   UNL     1      29.131  29.075  21.788  0.00  0.00    +0.000 OA
ATOM     20  C   UNL     1      29.379  26.748  21.303  0.00  0.00    +0.000 A 
ATOM     21  C   UNL     1      29.191  25.408  21.612  0.00  0.00    +0.000 A 
ATOM     22  O   UNL     1      29.690  24.482  20.707  0.00  0.00    +0.000 OA
ENDBRANCH  14  15
ENDBRANCH   1  14
TORSDOF 3
ENDMDL
MODEL 4
REMARK VINA RESULT:      -7.1     18.836     20.895
REMARK  Name = 
REMARK  3 active torsions:
REMARK  status: ('A' for Active; 'I' for Inactive)
REMARK    1  A    between atoms: C_2  and  C_3
REMARK    2  A    between atoms: C_2  and  C_15
REMARK    3  A    between atoms: C_3  and  C_4
REMARK                            x       y       z     vdW  Elec       q    Type
REMARK                         _______ _______ _______ _____ _____    ______ ____
ROOT
ATOM      1  C   UNL     1      31.278  21.836  27.460  0.00  0.00    +0.000 C 
ENDROOT
BRANCH   1   2
ATOM      2  C   UNL     1      30.173  22.277  26.559  0.00  0.00    +0.000 A 
ATOM      3  C   UNL     1      28.853  22.262  26.956  0.00  0.00    +0.000 A 
ATOM      4  C   UNL     1      27.828  22.669  26.126  0.00  0.00    +0.000 A 
ATOM      5  C   UNL     1      28.084  23.111  24.853  0.00  0.00    +0.000 A 
ATOM      6  C   UNL     1      29.402  23.129  24.447  0.00  0.00    +0.000 A 
ATOM      7  C   UNL     1      30.428  22.723  25.274  0.00  0.00    +0.000 A 
ATOM      8  O   UNL     1      29.847  23.547  23.189  0.00  0.00    +0.000 OA
ATOM      9  C   UNL     1      29.222  24.302  22.172  0.00  0.00    +0.000 C 
ATOM     10  C   UNL     1      27.779  23.910  21.964  0.00  0.00    +0.000 C 
ATOM     11  C   UNL     1      26.883  24.438  23.081  0.00  0.00    +0.000 C 
ATOM     12  O   UNL     1      26.947  23.487  24.136  0.00  0.00    +0.000 OA
ENDBRANCH   1   2
BRANCH   1  14
ATOM     13  O   UNL     1      31.681  23.945  28.418  0.00  0.00    +0.000 OA
ATOM     14  C   UNL     1      31.371  22.748  28.616  0.00  0.00    +0.000 C 
BRANCH  14  15
ATOM     15  C   UNL     1      31.124  22.333  29.986  0.00  0.00    +0.000 A 
ATOM     16  C   UNL     1      29.941  22.599  30.639  0.00  0.00    +0.000 A 
ATOM     17  C   UNL     1      29.707  22.205  31.937  0.00  0.00    +0.000 A 
ATOM     18  C   UNL     1      30.685  21.517  32.625  0.00  0.00    +0.000 A 
ATOM     19  O   UNL     1      30.476  21.108  33.936  0.00  0.00    +0.000 OA
ATOM     20  C   UNL     1      31.861  21.246  31.993  0.00  0.00    +0.000 A 
ATOM     21  C   UNL     1      32.094  21.644  30.684  0.00  0.00    +0.000 A 
ATOM     22  O   UNL     1      33.327  21.314  30.141  0.00  0.00    +0.000 OA
ENDBRANCH  14  15
ENDBRANCH   1  14
TORSDOF 3
ENDMDL
MODEL 5
REMARK VINA RESULT:      -6.9     19.631     21.378
REMARK  Name = 
REMARK  3 active torsions:
REMARK  status: ('A' for Active; 'I' for Inactive)
REMARK    1  A    between atoms: C_2  and  C_3
REMARK    2  A    between atoms: C_2  and  C_15
REMARK    3  A    between atoms: C_3  and  C_4
REMARK                            x       y       z     vdW  Elec       q    Type
REMARK                         _______ _______ _______ _____ _____    ______ ____
ROOT
ATOM      1  C   UNL     1      28.936  22.348  27.962  0.00  0.00    +0.000 C 
ENDROOT
BRANCH   1   2
ATOM      2  C   UNL     1      29.172  22.799  26.559  0.00  0.00    +0.000 A 
ATOM      3  C   UNL     1      30.215  22.316  25.799  0.00  0.00    +0.000 A 
ATOM      4  C   UNL     1      30.437  22.729  24.502  0.00  0.00    +0.000 A 
ATOM      5  C   UNL     1      29.616  23.653  23.905  0.00  0.00    +0.000 A 
ATOM      6  C   UNL     1      28.570  24.142  24.658  0.00  0.00    +0.000 A 
ATOM      7  C   UNL     1      28.346  23.730  25.955  0.00  0.00    +0.000 A 
ATOM      8  O   UNL     1      27.636  25.085  24.215  0.00  0.00    +0.000 OA
ATOM      9  C   UNL     1      27.297  25.538  22.922  0.00  0.00    +0.000 C 
ATOM     10  C   UNL     1      28.508  25.749  22.046  0.00  0.00    +0.000 C 
ATOM     11  C   UNL     1      29.096  24.425  21.565  0.00  0.00    +0.000 C 
ATOM     12  O   UNL     1      29.967  23.971  22.592  0.00  0.00    +0.000 OA
ENDBRANCH   1   2
BRANCH   1  14
ATOM     13  O   UNL     1      29.678  24.286  29.066  0.00  0.00    +0.000 OA
ATOM     14  C   UNL     1      29.849  23.061  28.875  0.00  0.00    +0.000 C 
BRANCH  14  15
ATOM     15  C   UNL     1      30.949  22.417  29.573  0.00  0.00    +0.000 A 
ATOM     16  C   UNL     1      32.159  22.157  28.970  0.00  0.00    +0.000 A 
ATOM     17  C   UNL     1      33.201  21.547  29.632  0.00  0.00    +0.000 A 
ATOM     18  C   UNL     1      33.043  21.176  30.951  0.00  0.00    +0.000 A 
ATOM     19  O   UNL     1      34.077  20.559  31.644  0.00  0.00    +0.000 OA
ATOM     20  C   UNL     1      31.851  21.426  31.563  0.00  0.00    +0.000 A 
ATOM     21  C   UNL     1      30.802  22.042  30.892  0.00  0.00    +0.000 A 
ATOM     22  O   UNL     1      29.636  22.247  31.614  0.00  0.00    +0.000 OA
ENDBRANCH  14  15
ENDBRANCH   1  14
TORSDOF 3
ENDMDL
MODEL 6
REMARK VINA RESULT:      -6.9     19.831     23.852
REMARK  Name = 
REMARK  3 active torsions:
REMARK  status: ('A' for Active; 'I' for Inactive)
REMARK    1  A    between atoms: C_2  and  C_3
REMARK    2  A    between atoms: C_2  and  C_15
REMARK    3  A    between atoms: C_3  and  C_4
REMARK                            x       y       z     vdW  Elec       q    Type
REMARK                         _______ _______ _______ _____ _____    ______ ____
ROOT
ATOM      1  C   UNL     1      28.145  23.538  22.252  0.00  0.00    +0.000 C 
ENDROOT
BRANCH   1   2
ATOM      2  C   UNL     1      28.432  23.224  23.682  0.00  0.00    +0.000 A 
ATOM      3  C   UNL     1      29.665  22.769  24.099  0.00  0.00    +0.000 A 
ATOM      4  C   UNL     1      29.936  22.478  25.420  0.00  0.00    +0.000 A 
ATOM      5  C   UNL     1      28.975  22.631  26.388  0.00  0.00    +0.000 A 
ATOM      6  C   UNL     1      27.739  23.084  25.980  0.00  0.00    +0.000 A 
ATOM      7  C   UNL     1      27.466  23.376  24.660  0.00  0.00    +0.000 A 
ATOM      8  O   UNL     1      26.645  23.298  26.825  0.00  0.00    +0.000 OA
ATOM      9  C   UNL     1      26.550  23.426  28.228  0.00  0.00    +0.000 C 
ATOM     10  C   UNL     1      27.418  22.431  28.960  0.00  0.00    +0.000 C 
ATOM     11  C   UNL     1      28.894  22.816  28.899  0.00  0.00    +0.000 C 
ATOM     12  O   UNL     1      29.399  22.296  27.676  0.00  0.00    +0.000 OA
ENDBRANCH   1   2
BRANCH   1  14
ATOM     13  O   UNL     1      29.767  24.488  20.841  0.00  0.00    +0.000 OA
ATOM     14  C   UNL     1      28.992  24.661  21.808  0.00  0.00    +0.000 C 
BRANCH  14  15
ATOM     15  C   UNL     1      28.979  25.972  22.436  0.00  0.00    +0.000 A 
ATOM     16  C   UNL     1      29.850  26.318  23.445  0.00  0.00    +0.000 A 
ATOM     17  C   UNL     1      29.837  27.560  24.039  0.00  0.00    +0.000 A 
ATOM     18  C   UNL     1      28.925  28.506  23.619  0.00  0.00    +0.000 A 
ATOM     19  O   UNL     1      28.890  29.766  24.200  0.00  0.00    +0.000 OA
ATOM     20  C   UNL     1      28.056  28.178  22.621  0.00  0.00    +0.000 A 
ATOM     21  C   UNL     1      28.071  26.925  22.024  0.00  0.00    +0.000 A 
ATOM     22  O   UNL     1      27.142  26.702  21.018  0.00  0.00    +0.000 OA
ENDBRANCH  14  15
ENDBRANCH   1  14
TORSDOF 3
ENDMDL
MODEL 7
REMARK VINA RESULT:      -6.9     19.995     22.289
REMARK  Name = 
REMARK  3 active torsions:
REMARK  status: ('A' for Active; 'I' for Inactive)
REMARK    1  A    between atoms: C_2  and  C_3
REMARK    2  A    between atoms: C_2  and  C_15
REMARK    3  A    between atoms: C_3  and  C_4
REMARK                            x       y       z     vdW  Elec       q    Type
REMARK                         _______ _______ _______ _____ _____    ______ ____
ROOT
ATOM      1  C   UNL     1      32.656  -3.536  34.337  0.00  0.00    +0.000 C 
ENDROOT
BRANCH   1   2
ATOM      2  C   UNL     1      33.121  -4.620  33.423  0.00  0.00    +0.000 A 
ATOM      3  C   UNL     1      33.533  -5.849  33.893  0.00  0.00    +0.000 A 
ATOM      4  C   UNL     1      33.963  -6.854  33.052  0.00  0.00    +0.000 A 
ATOM      5  C   UNL     1      33.999  -6.670  31.692  0.00  0.00    +0.000 A 
ATOM      6  C   UNL     1      33.589  -5.444  31.214  0.00  0.00    +0.000 A 
ATOM      7  C   UNL     1      33.159  -4.437  32.052  0.00  0.00    +0.000 A 
ATOM      8  O   UNL     1      33.559  -5.081  29.863  0.00  0.00    +0.000 OA
ATOM      9  C   UNL     1      33.610  -5.850  28.680  0.00  0.00    +0.000 C 
ATOM     10  C   UNL     1      34.621  -6.967  28.759  0.00  0.00    +0.000 C 
ATOM     11  C   UNL     1      34.127  -8.116  29.634  0.00  0.00    +0.000 C 
ATOM     12  O   UNL     1      34.456  -7.776  30.974  0.00  0.00    +0.000 OA
ENDBRANCH   1   2
BRANCH   1  14
ATOM     13  O   UNL     1      34.774  -2.956  35.177  0.00  0.00    +0.000 OA
ATOM     14  C   UNL     1      33.751  -2.573  34.565  0.00  0.00    +0.000 C 
BRANCH  14  15
ATOM     15  C   UNL     1      33.709  -1.191  34.118  0.00  0.00    +0.000 A 
ATOM     16  C   UNL     1      34.252  -0.783  32.920  0.00  0.00    +0.000 A 
ATOM     17  C   UNL     1      34.212   0.527  32.497  0.00  0.00    +0.000 A 
ATOM     18  C   UNL     1      33.608   1.479  33.292  0.00  0.00    +0.000 A 
ATOM     19  O   UNL     1      33.553   2.808  32.891  0.00  0.00    +0.000 OA
ATOM     20  C   UNL     1      33.066   1.091  34.481  0.00  0.00    +0.000 A 
ATOM     21  C   UNL     1      33.108  -0.230  34.905  0.00  0.00    +0.000 A 
ATOM     22  O   UNL     1      32.524  -0.511  36.131  0.00  0.00    +0.000 OA
ENDBRANCH  14  15
ENDBRANCH   1  14
TORSDOF 3
ENDMDL
MODEL 8
REMARK VINA RESULT:      -6.7     21.358     23.254
REMARK  Name = 
REMARK  3 active torsions:
REMARK  status: ('A' for Active; 'I' for Inactive)
REMARK    1  A    between atoms: C_2  and  C_3
REMARK    2  A    between atoms: C_2  and  C_15
REMARK    3  A    between atoms: C_3  and  C_4
REMARK                            x       y       z     vdW  Elec       q    Type
REMARK                         _______ _______ _______ _____ _____    ______ ____
ROOT
ATOM      1  C   UNL     1      21.930  -8.694  23.703  0.00  0.00    +0.000 C 
ENDROOT
BRANCH   1   2
ATOM      2  C   UNL     1      23.341  -8.345  23.366  0.00  0.00    +0.000 A 
ATOM      3  C   UNL     1      23.916  -7.154  23.756  0.00  0.00    +0.000 A 
ATOM      4  C   UNL     1      25.220  -6.828  23.447  0.00  0.00    +0.000 A 
ATOM      5  C   UNL     1      26.012  -7.689  22.729  0.00  0.00    +0.000 A 
ATOM      6  C   UNL     1      25.445  -8.882  22.334  0.00  0.00    +0.000 A 
ATOM      7  C   UNL     1      24.142  -9.211  22.642  0.00  0.00    +0.000 A 
ATOM      8  O   UNL     1      26.100  -9.875  21.599  0.00  0.00    +0.000 OA
ATOM      9  C   UNL     1      27.469 -10.105  21.339  0.00  0.00    +0.000 C 
ATOM     10  C   UNL     1      28.222  -8.834  21.031  0.00  0.00    +0.000 C 
ATOM     11  C   UNL     1      28.471  -8.006  22.289  0.00  0.00    +0.000 C 
ATOM     12  O   UNL     1      27.305  -7.219  22.495  0.00  0.00    +0.000 OA
ENDBRANCH   1   2
BRANCH   1  14
ATOM     13  O   UNL     1      22.460  -8.998  25.973  0.00  0.00    +0.000 OA
ATOM     14  C   UNL     1      21.690  -8.466  25.141  0.00  0.00    +0.000 C 
BRANCH  14  15
ATOM     15  C   UNL     1      20.600  -7.654  25.654  0.00  0.00    +0.000 A 
ATOM     16  C   UNL     1      20.595  -6.280  25.567  0.00  0.00    +0.000 A 
ATOM     17  C   UNL     1      19.561  -5.511  26.053  0.00  0.00    +0.000 A 
ATOM     18  C   UNL     1      18.481  -6.126  26.652  0.00  0.00    +0.000 A 
ATOM     19  O   UNL     1      17.425  -5.375  27.151  0.00  0.00    +0.000 OA
ATOM     20  C   UNL     1      18.471  -7.485  26.746  0.00  0.00    +0.000 A 
ATOM     21  C   UNL     1      19.515  -8.258  26.255  0.00  0.00    +0.000 A 
ATOM     22  O   UNL     1      19.398  -9.632  26.404  0.00  0.00    +0.000 OA
ENDBRANCH  14  15
ENDBRANCH   1  14
TORSDOF 3
ENDMDL
MODEL 9
REMARK VINA RESULT:      -6.6     19.784     22.280
REMARK  Name = 
REMARK  3 active torsions:
REMARK  status: ('A' for Active; 'I' for Inactive)
REMARK    1  A    between atoms: C_2  and  C_3
REMARK    2  A    between atoms: C_2  and  C_15
REMARK    3  A    between atoms: C_3  and  C_4
REMARK                            x       y       z     vdW  Elec       q    Type
REMARK                         _______ _______ _______ _____ _____    ______ ____
ROOT
ATOM      1  C   UNL     1      33.293  -5.543  33.998  0.00  0.00    +0.000 C 
ENDROOT
BRANCH   1   2
ATOM      2  C   UNL     1      33.186  -4.094  34.338  0.00  0.00    +0.000 A 
ATOM      3  C   UNL     1      32.672  -3.659  35.542  0.00  0.00    +0.000 A 
ATOM      4  C   UNL     1      32.572  -2.321  35.861  0.00  0.00    +0.000 A 
ATOM      5  C   UNL     1      32.985  -1.353  34.981  0.00  0.00    +0.000 A 
ATOM      6  C   UNL     1      33.499  -1.778  33.775  0.00  0.00    +0.000 A 
ATOM      7  C   UNL     1      33.601  -3.115  33.453  0.00  0.00    +0.000 A 
ATOM      8  O   UNL     1      33.967  -0.935  32.762  0.00  0.00    +0.000 OA
ATOM      9  C   UNL     1      34.331   0.430  32.765  0.00  0.00    +0.000 C 
ATOM     10  C   UNL     1      33.379   1.280  33.570  0.00  0.00    +0.000 C 
ATOM     11  C   UNL     1      33.584   1.092  35.071  0.00  0.00    +0.000 C 
ATOM     12  O   UNL     1      32.820  -0.047  35.445  0.00  0.00    +0.000 OA
ENDBRANCH   1   2
BRANCH   1  14
ATOM     13  O   UNL     1      31.052  -5.887  33.378  0.00  0.00    +0.000 OA
ATOM     14  C   UNL     1      32.251  -5.903  33.018  0.00  0.00    +0.000 C 
BRANCH  14  15
ATOM     15  C   UNL     1      32.538  -6.281  31.644  0.00  0.00    +0.000 A 
ATOM     16  C   UNL     1      32.855  -5.358  30.673  0.00  0.00    +0.000 A 
ATOM     17  C   UNL     1      33.127  -5.717  29.372  0.00  0.00    +0.000 A 
ATOM     18  C   UNL     1      33.084  -7.048  29.011  0.00  0.00    +0.000 A 
ATOM     19  O   UNL     1      33.354  -7.439  27.706  0.00  0.00    +0.000 OA
ATOM     20  C   UNL     1      32.771  -7.974  29.961  0.00  0.00    +0.000 A 
ATOM     21  C   UNL     1      32.498  -7.609  31.272  0.00  0.00    +0.000 A 
ATOM     22  O   UNL     1      32.192  -8.634  32.154  0.00  0.00    +0.000 OA
ENDBRANCH  14  15
ENDBRANCH   1  14
TORSDOF 3
ENDMDL
MODEL 10
REMARK VINA RESULT:      -6.6     10.113     13.199
REMARK  Name = 
REMARK  3 active torsions:
REMARK  status: ('A' for Active; 'I' for Inactive)
REMARK    1  A    between atoms: C_2  and  C_3
REMARK    2  A    between atoms: C_2  and  C_15
REMARK    3  A    between atoms: C_3  and  C_4
REMARK                            x       y       z     vdW  Elec       q    Type
REMARK                         _______ _______ _______ _____ _____    ______ ____
ROOT
ATOM      1  C   UNL     1      19.301  23.013  38.069  0.00  0.00    +0.000 C 
ENDROOT
BRANCH   1   2
ATOM      2  C   UNL     1      19.489  21.557  38.336  0.00  0.00    +0.000 A 
ATOM      3  C   UNL     1      18.476  20.766  38.835  0.00  0.00    +0.000 A 
ATOM      4  C   UNL     1      18.645  19.419  39.082  0.00  0.00    +0.000 A 
ATOM      5  C   UNL     1      19.846  18.802  38.837  0.00  0.00    +0.000 A 
ATOM      6  C   UNL     1      20.865  19.585  38.339  0.00  0.00    +0.000 A 
ATOM      7  C   UNL     1      20.699  20.932  38.091  0.00  0.00    +0.000 A 
ATOM      8  O   UNL     1      22.150  19.127  38.032  0.00  0.00    +0.000 OA
ATOM      9  C   UNL     1      22.665  17.827  37.838  0.00  0.00    +0.000 C 
ATOM     10  C   UNL     1      22.130  16.837  38.844  0.00  0.00    +0.000 C 
ATOM     11  C   UNL     1      20.686  16.446  38.539  0.00  0.00    +0.000 C 
ATOM     12  O   UNL     1      19.863  17.439  39.137  0.00  0.00    +0.000 OA
ENDBRANCH   1   2
BRANCH   1  14
ATOM     13  O   UNL     1      20.265  23.902  36.119  0.00  0.00    +0.000 OA
ATOM     14  C   UNL     1      19.312  23.259  36.615  0.00  0.00    +0.000 C 
BRANCH  14  15
ATOM     15  C   UNL     1      18.269  22.796  35.715  0.00  0.00    +0.000 A 
ATOM     16  C   UNL     1      16.997  23.323  35.721  0.00  0.00    +0.000 A 
ATOM     17  C   UNL     1      16.010  22.883  34.868  0.00  0.00    +0.000 A 
ATOM     18  C   UNL     1      16.290  21.877  33.966  0.00  0.00    +0.000 A 
ATOM     19  O   UNL     1      15.314  21.414  33.094  0.00  0.00    +0.000 OA
ATOM     20  C   UNL     1      17.545  21.346  33.947  0.00  0.00    +0.000 A 
ATOM     21  C   UNL     1      18.538  21.791  34.809  0.00  0.00    +0.000 A 
ATOM     22  O   UNL     1      19.778  21.178  34.702  0.00  0.00    +0.000 OA
ENDBRANCH  14  15
ENDBRANCH   1  14
TORSDOF 3
ENDMDL
