MODEL 1
REMARK VINA RESULT:      -5.9      0.000      0.000
REMARK  Name = 
REMARK  3 active torsions:
REMARK  status: ('A' for Active; 'I' for Inactive)
REMARK    1  A    between atoms: C_5  and  C_6
REMARK    2  A    between atoms: N_7  and  C_8
REMARK    3  A    between atoms: C_11  and  N_12
REMARK                            x       y       z     vdW  Elec       q    Type
REMARK                         _______ _______ _______ _____ _____    ______ ____
ROOT
ATOM      1  C   UNL     1      26.728  23.940  23.645  0.00  0.00    +0.000 A 
ATOM      2  C   UNL     1      26.426  22.978  24.592  0.00  0.00    +0.000 A 
ATOM      3  C   UNL     1      25.938  23.328  25.834  0.00  0.00    +0.000 A 
ATOM      4  C   UNL     1      25.728  24.626  26.197  0.00  0.00    +0.000 A 
ATOM      5  C   UNL     1      26.028  25.604  25.257  0.00  0.00    +0.000 A 
ATOM      6  C   UNL     1      26.515  25.259  24.013  0.00  0.00    +0.000 A 
ENDROOT
BRANCH   4   7
ATOM      7  N   UNL     1      25.227  24.934  27.479  0.00  0.00    +0.000 N 
ATOM      8  C   UNL     1      25.666  24.337  28.714  0.00  0.00    +0.000 C 
ATOM      9  C   UNL     1      25.381  25.345  29.785  0.00  0.00    +0.000 C 
ATOM     10  C   UNL     1      24.298  26.210  29.229  0.00  0.00    +0.000 C 
ATOM     11  C   UNL     1      24.190  25.902  27.752  0.00  0.00    +0.000 C 
ENDBRANCH   4   7
BRANCH   1  13
ATOM     12  C   UNL     1      28.476  23.582  22.157  0.00  0.00    +0.000 C 
ATOM     13  N   UNL     1      27.235  23.637  22.356  0.00  0.00    +0.000 NA
BRANCH  12  18
ATOM     14  O   UNL     1      32.145  24.272  26.415  0.00  0.00    +0.000 OA
ATOM     15  C   UNL     1      31.233  24.111  25.354  0.00  0.00    +0.000 A 
ATOM     16  C   UNL     1      30.868  25.193  24.583  0.00  0.00    +0.000 A 
ATOM     17  C   UNL     1      29.974  25.041  23.542  0.00  0.00    +0.000 A 
ATOM     18  C   UNL     1      29.418  23.823  23.231  0.00  0.00    +0.000 A 
ATOM     19  C   UNL     1      29.797  22.752  24.014  0.00  0.00    +0.000 A 
ATOM     20  C   UNL     1      30.690  22.878  25.062  0.00  0.00    +0.000 A 
ENDBRANCH  12  18
ENDBRANCH   1  13
TORSDOF 3
ENDMDL
MODEL 2
REMARK VINA RESULT:      -5.9     20.060     22.017
REMARK  Name = 
REMARK  3 active torsions:
REMARK  status: ('A' for Active; 'I' for Inactive)
REMARK    1  A    between atoms: C_5  and  C_6
REMARK    2  A    between atoms: N_7  and  C_8
REMARK    3  A    between atoms: C_11  and  N_12
REMARK                            x       y       z     vdW  Elec       q    Type
REMARK                         _______ _______ _______ _____ _____    ______ ____
ROOT
ATOM      1  C   UNL     1      19.640  10.365  37.757  0.00  0.00    +0.000 A 
ATOM      2  C   UNL     1      18.998  11.573  37.961  0.00  0.00    +0.000 A 
ATOM      3  C   UNL     1      17.884  11.921  37.225  0.00  0.00    +0.000 A 
ATOM      4  C   UNL     1      17.359  11.106  36.266  0.00  0.00    +0.000 A 
ATOM      5  C   UNL     1      17.994   9.890  36.048  0.00  0.00    +0.000 A 
ATOM      6  C   UNL     1      19.107   9.536  36.782  0.00  0.00    +0.000 A 
ENDROOT
BRANCH   4   7
ATOM      7  N   UNL     1      16.218  11.507  35.539  0.00  0.00    +0.000 N 
ATOM      8  C   UNL     1      15.048  12.135  36.097  0.00  0.00    +0.000 C 
ATOM      9  C   UNL     1      14.434  12.929  34.985  0.00  0.00    +0.000 C 
ATOM     10  C   UNL     1      14.925  12.286  33.729  0.00  0.00    +0.000 C 
ATOM     11  C   UNL     1      16.047  11.347  34.113  0.00  0.00    +0.000 C 
ENDBRANCH   4   7
BRANCH   1  13
ATOM     12  C   UNL     1      20.671   9.306  39.551  0.00  0.00    +0.000 C 
ATOM     13  N   UNL     1      20.790   9.958  38.481  0.00  0.00    +0.000 NA
BRANCH  12  18
ATOM     14  O   UNL     1      15.600   7.683  41.481  0.00  0.00    +0.000 OA
ATOM     15  C   UNL     1      16.859   8.096  41.005  0.00  0.00    +0.000 A 
ATOM     16  C   UNL     1      17.303   9.379  41.240  0.00  0.00    +0.000 A 
ATOM     17  C   UNL     1      18.536   9.791  40.775  0.00  0.00    +0.000 A 
ATOM     18  C   UNL     1      19.365   8.952  40.070  0.00  0.00    +0.000 A 
ATOM     19  C   UNL     1      18.904   7.671  39.847  0.00  0.00    +0.000 A 
ATOM     20  C   UNL     1      17.673   7.235  40.301  0.00  0.00    +0.000 A 
ENDBRANCH  12  18
ENDBRANCH   1  13
TORSDOF 3
ENDMDL
MODEL 3
REMARK VINA RESULT:      -5.9      2.906      5.556
REMARK  Name = 
REMARK  3 active torsions:
REMARK  status: ('A' for Active; 'I' for Inactive)
REMARK    1  A    between atoms: C_5  and  C_6
REMARK    2  A    between atoms: N_7  and  C_8
REMARK    3  A    between atoms: C_11  and  N_12
REMARK                            x       y       z     vdW  Elec       q    Type
REMARK                         _______ _______ _______ _____ _____    ______ ____
ROOT
ATOM      1  C   UNL     1      29.971  23.872  23.537  0.00  0.00    +0.000 A 
ATOM      2  C   UNL     1      29.944  22.649  24.182  0.00  0.00    +0.000 A 
ATOM      3  C   UNL     1      30.532  22.481  25.418  0.00  0.00    +0.000 A 
ATOM      4  C   UNL     1      31.169  23.498  26.067  0.00  0.00    +0.000 A 
ATOM      5  C   UNL     1      31.206  24.732  25.431  0.00  0.00    +0.000 A 
ATOM      6  C   UNL     1      30.618  24.905  24.196  0.00  0.00    +0.000 A 
ENDROOT
BRANCH   4   7
ATOM      7  N   UNL     1      31.756  23.277  27.331  0.00  0.00    +0.000 N 
ATOM      8  C   UNL     1      31.314  22.309  28.302  0.00  0.00    +0.000 C 
ATOM      9  C   UNL     1      32.517  21.975  29.129  0.00  0.00    +0.000 C 
ATOM     10  C   UNL     1      33.429  23.149  28.986  0.00  0.00    +0.000 C 
ATOM     11  C   UNL     1      32.899  23.993  27.848  0.00  0.00    +0.000 C 
ENDBRANCH   4   7
BRANCH   1  13
ATOM     12  C   UNL     1      28.148  24.304  22.161  0.00  0.00    +0.000 C 
ATOM     13  N   UNL     1      29.386  24.099  22.265  0.00  0.00    +0.000 NA
BRANCH  12  18
ATOM     14  O   UNL     1      24.846  24.606  26.751  0.00  0.00    +0.000 OA
ATOM     15  C   UNL     1      25.665  24.521  25.609  0.00  0.00    +0.000 A 
ATOM     16  C   UNL     1      25.819  23.318  24.954  0.00  0.00    +0.000 A 
ATOM     17  C   UNL     1      26.622  23.228  23.834  0.00  0.00    +0.000 A 
ATOM     18  C   UNL     1      27.291  24.316  23.328  0.00  0.00    +0.000 A 
ATOM     19  C   UNL     1      27.123  25.511  23.998  0.00  0.00    +0.000 A 
ATOM     20  C   UNL     1      26.326  25.628  25.121  0.00  0.00    +0.000 A 
ENDBRANCH  12  18
ENDBRANCH   1  13
TORSDOF 3
ENDMDL
MODEL 4
REMARK VINA RESULT:      -5.6      2.393      5.950
REMARK  Name = 
REMARK  3 active torsions:
REMARK  status: ('A' for Active; 'I' for Inactive)
REMARK    1  A    between atoms: C_5  and  C_6
REMARK    2  A    between atoms: N_7  and  C_8
REMARK    3  A    between atoms: C_11  and  N_12
REMARK                            x       y       z     vdW  Elec       q    Type
REMARK                         _______ _______ _______ _____ _____    ______ ____
ROOT
ATOM      1  C   UNL     1      28.336  23.685  22.947  0.00  0.00    +0.000 A 
ATOM      2  C   UNL     1      28.874  24.938  22.716  0.00  0.00    +0.000 A 
ATOM      3  C   UNL     1      30.047  25.333  23.324  0.00  0.00    +0.000 A 
ATOM      4  C   UNL     1      30.736  24.523  24.178  0.00  0.00    +0.000 A 
ATOM      5  C   UNL     1      30.207  23.262  24.422  0.00  0.00    +0.000 A 
ATOM      6  C   UNL     1      29.035  22.861  23.815  0.00  0.00    +0.000 A 
ENDROOT
BRANCH   4   7
ATOM      7  N   UNL     1      31.932  24.973  24.777  0.00  0.00    +0.000 N 
ATOM      8  C   UNL     1      33.169  24.237  24.831  0.00  0.00    +0.000 C 
ATOM      9  C   UNL     1      34.255  25.263  24.941  0.00  0.00    +0.000 C 
ATOM     10  C   UNL     1      33.594  26.474  25.512  0.00  0.00    +0.000 C 
ATOM     11  C   UNL     1      32.100  26.250  25.431  0.00  0.00    +0.000 C 
ENDBRANCH   4   7
BRANCH   1  13
ATOM     12  C   UNL     1      26.045  23.299  22.981  0.00  0.00    +0.000 C 
ATOM     13  N   UNL     1      27.133  23.228  22.352  0.00  0.00    +0.000 NA
BRANCH  12  18
ATOM     14  O   UNL     1      25.796  25.672  28.116  0.00  0.00    +0.000 OA
ATOM     15  C   UNL     1      25.859  25.073  26.843  0.00  0.00    +0.000 A 
ATOM     16  C   UNL     1      26.028  23.710  26.726  0.00  0.00    +0.000 A 
ATOM     17  C   UNL     1      26.091  23.116  25.481  0.00  0.00    +0.000 A 
ATOM     18  C   UNL     1      25.989  23.845  24.321  0.00  0.00    +0.000 A 
ATOM     19  C   UNL     1      25.820  25.208  24.459  0.00  0.00    +0.000 A 
ATOM     20  C   UNL     1      25.754  25.826  25.694  0.00  0.00    +0.000 A 
ENDBRANCH  12  18
ENDBRANCH   1  13
TORSDOF 3
ENDMDL
MODEL 5
REMARK VINA RESULT:      -5.5      2.915      5.219
REMARK  Name = 
REMARK  3 active torsions:
REMARK  status: ('A' for Active; 'I' for Inactive)
REMARK    1  A    between atoms: C_5  and  C_6
REMARK    2  A    between atoms: N_7  and  C_8
REMARK    3  A    between atoms: C_11  and  N_12
REMARK                            x       y       z     vdW  Elec       q    Type
REMARK                         _______ _______ _______ _____ _____    ______ ____
ROOT
ATOM      1  C   UNL     1      27.137  24.381  26.378  0.00  0.00    +0.000 A 
ATOM      2  C   UNL     1      28.146  25.294  26.621  0.00  0.00    +0.000 A 
ATOM      3  C   UNL     1      29.391  24.885  27.051  0.00  0.00    +0.000 A 
ATOM      4  C   UNL     1      29.696  23.571  27.259  0.00  0.00    +0.000 A 
ATOM      5  C   UNL     1      28.692  22.641  27.021  0.00  0.00    +0.000 A 
ATOM      6  C   UNL     1      27.445  23.046  26.590  0.00  0.00    +0.000 A 
ENDROOT
BRANCH   4   7
ATOM      7  N   UNL     1      30.984  23.201  27.699  0.00  0.00    +0.000 N 
ATOM      8  C   UNL     1      32.134  24.067  27.744  0.00  0.00    +0.000 C 
ATOM      9  C   UNL     1      33.028  23.512  28.811  0.00  0.00    +0.000 C 
ATOM     10  C   UNL     1      32.648  22.073  28.929  0.00  0.00    +0.000 C 
ATOM     11  C   UNL     1      31.350  21.887  28.175  0.00  0.00    +0.000 C 
ENDBRANCH   4   7
BRANCH   1  13
ATOM     12  C   UNL     1      25.606  24.923  24.715  0.00  0.00    +0.000 C 
ATOM     13  N   UNL     1      25.839  24.747  25.940  0.00  0.00    +0.000 NA
BRANCH  12  18
ATOM     14  O   UNL     1      29.725  24.529  20.849  0.00  0.00    +0.000 OA
ATOM     15  C   UNL     1      28.700  24.617  21.810  0.00  0.00    +0.000 A 
ATOM     16  C   UNL     1      28.044  23.480  22.229  0.00  0.00    +0.000 A 
ATOM     17  C   UNL     1      27.037  23.559  23.171  0.00  0.00    +0.000 A 
ATOM     18  C   UNL     1      26.650  24.756  23.724  0.00  0.00    +0.000 A 
ATOM     19  C   UNL     1      27.319  25.883  23.292  0.00  0.00    +0.000 A 
ATOM     20  C   UNL     1      28.331  25.830  22.350  0.00  0.00    +0.000 A 
ENDBRANCH  12  18
ENDBRANCH   1  13
TORSDOF 3
ENDMDL
MODEL 6
REMARK VINA RESULT:      -5.5     33.364     34.900
REMARK  Name = 
REMARK  3 active torsions:
REMARK  status: ('A' for Active; 'I' for Inactive)
REMARK    1  A    between atoms: C_5  and  C_6
REMARK    2  A    between atoms: N_7  and  C_8
REMARK    3  A    between atoms: C_11  and  N_12
REMARK                            x       y       z     vdW  Elec       q    Type
REMARK                         _______ _______ _______ _____ _____    ______ ____
ROOT
ATOM      1  C   UNL     1      17.297 -10.265  25.929  0.00  0.00    +0.000 A 
ATOM      2  C   UNL     1      17.336  -9.904  24.595  0.00  0.00    +0.000 A 
ATOM      3  C   UNL     1      16.196  -9.505  23.930  0.00  0.00    +0.000 A 
ATOM      4  C   UNL     1      14.977  -9.446  24.541  0.00  0.00    +0.000 A 
ATOM      5  C   UNL     1      14.921  -9.808  25.881  0.00  0.00    +0.000 A 
ATOM      6  C   UNL     1      16.060 -10.206  26.551  0.00  0.00    +0.000 A 
ENDROOT
BRANCH   4   7
ATOM      7  N   UNL     1      13.838  -9.033  23.818  0.00  0.00    +0.000 N 
ATOM      8  C   UNL     1      12.475  -9.146  24.269  0.00  0.00    +0.000 C 
ATOM      9  C   UNL     1      11.714  -8.070  23.557  0.00  0.00    +0.000 C 
ATOM     10  C   UNL     1      12.516  -7.768  22.333  0.00  0.00    +0.000 C 
ATOM     11  C   UNL     1      13.866  -8.428  22.506  0.00  0.00    +0.000 C 
ENDBRANCH   4   7
BRANCH   1  13
ATOM     12  C   UNL     1      19.234  -9.838  27.141  0.00  0.00    +0.000 C 
ATOM     13  N   UNL     1      18.438 -10.686  26.660  0.00  0.00    +0.000 NA
BRANCH  12  18
ATOM     14  O   UNL     1      18.555  -4.282  26.283  0.00  0.00    +0.000 OA
ATOM     15  C   UNL     1      18.716  -5.663  26.503  0.00  0.00    +0.000 A 
ATOM     16  C   UNL     1      17.888  -6.326  27.383  0.00  0.00    +0.000 A 
ATOM     17  C   UNL     1      18.041  -7.681  27.603  0.00  0.00    +0.000 A 
ATOM     18  C   UNL     1      19.010  -8.417  26.965  0.00  0.00    +0.000 A 
ATOM     19  C   UNL     1      19.828  -7.735  26.088  0.00  0.00    +0.000 A 
ATOM     20  C   UNL     1      19.695  -6.380  25.850  0.00  0.00    +0.000 A 
ENDBRANCH  12  18
ENDBRANCH   1  13
TORSDOF 3
ENDMDL
MODEL 7
REMARK VINA RESULT:      -5.4     22.199     23.988
REMARK  Name = 
REMARK  3 active torsions:
REMARK  status: ('A' for Active; 'I' for Inactive)
REMARK    1  A    between atoms: C_5  and  C_6
REMARK    2  A    between atoms: N_7  and  C_8
REMARK    3  A    between atoms: C_11  and  N_12
REMARK                            x       y       z     vdW  Elec       q    Type
REMARK                         _______ _______ _______ _____ _____    ______ ____
ROOT
ATOM      1  C   UNL     1      23.318   2.299  17.629  0.00  0.00    +0.000 A 
ATOM      2  C   UNL     1      23.506   3.114  16.527  0.00  0.00    +0.000 A 
ATOM      3  C   UNL     1      24.422   4.145  16.550  0.00  0.00    +0.000 A 
ATOM      4  C   UNL     1      25.186   4.418  17.646  0.00  0.00    +0.000 A 
ATOM      5  C   UNL     1      25.008   3.609  18.762  0.00  0.00    +0.000 A 
ATOM      6  C   UNL     1      24.093   2.577  18.743  0.00  0.00    +0.000 A 
ENDROOT
BRANCH   4   7
ATOM      7  N   UNL     1      26.110   5.484  17.622  0.00  0.00    +0.000 N 
ATOM      8  C   UNL     1      27.181   5.685  18.563  0.00  0.00    +0.000 C 
ATOM      9  C   UNL     1      28.226   6.475  17.838  0.00  0.00    +0.000 C 
ATOM     10  C   UNL     1      27.496   7.173  16.738  0.00  0.00    +0.000 C 
ATOM     11  C   UNL     1      26.123   6.545  16.641  0.00  0.00    +0.000 C 
ENDBRANCH   4   7
BRANCH   1  13
ATOM     12  C   UNL     1      22.725   0.080  17.272  0.00  0.00    +0.000 C 
ATOM     13  N   UNL     1      22.388   1.229  17.661  0.00  0.00    +0.000 NA
BRANCH  12  18
ATOM     14  O   UNL     1      28.028  -1.003  15.608  0.00  0.00    +0.000 OA
ATOM     15  C   UNL     1      26.707  -0.732  16.012  0.00  0.00    +0.000 A 
ATOM     16  C   UNL     1      25.768  -0.330  15.087  0.00  0.00    +0.000 A 
ATOM     17  C   UNL     1      24.471  -0.061  15.477  0.00  0.00    +0.000 A 
ATOM     18  C   UNL     1      24.064  -0.181  16.784  0.00  0.00    +0.000 A 
ATOM     19  C   UNL     1      25.019  -0.585  17.694  0.00  0.00    +0.000 A 
ATOM     20  C   UNL     1      26.324  -0.860  17.329  0.00  0.00    +0.000 A 
ENDBRANCH  12  18
ENDBRANCH   1  13
TORSDOF 3
ENDMDL
MODEL 8
REMARK VINA RESULT:      -5.4      3.150      5.970
REMARK  Name = 
REMARK  3 active torsions:
REMARK  status: ('A' for Active; 'I' for Inactive)
REMARK    1  A    between atoms: C_5  and  C_6
REMARK    2  A    between atoms: N_7  and  C_8
REMARK    3  A    between atoms: C_11  and  N_12
REMARK                            x       y       z     vdW  Elec       q    Type
REMARK                         _______ _______ _______ _____ _____    ______ ____
ROOT
ATOM      1  C   UNL     1      27.842  24.439  23.001  0.00  0.00    +0.000 A 
ATOM      2  C   UNL     1      28.626  24.113  21.910  0.00  0.00    +0.000 A 
ATOM      3  C   UNL     1      29.098  25.087  21.054  0.00  0.00    +0.000 A 
ATOM      4  C   UNL     1      28.822  26.411  21.232  0.00  0.00    +0.000 A 
ATOM      5  C   UNL     1      28.034  26.754  22.324  0.00  0.00    +0.000 A 
ATOM      6  C   UNL     1      27.560  25.784  23.183  0.00  0.00    +0.000 A 
ENDROOT
BRANCH   4   7
ATOM      7  N   UNL     1      29.327  27.371  20.330  0.00  0.00    +0.000 N 
ATOM      8  C   UNL     1      29.146  28.796  20.435  0.00  0.00    +0.000 C 
ATOM      9  C   UNL     1      30.308  29.414  19.720  0.00  0.00    +0.000 C 
ATOM     10  C   UNL     1      30.781  28.367  18.765  0.00  0.00    +0.000 C 
ATOM     11  C   UNL     1      30.109  27.068  19.153  0.00  0.00    +0.000 C 
ENDBRANCH   4   7
BRANCH   1  13
ATOM     12  C   UNL     1      28.048  23.033  24.841  0.00  0.00    +0.000 C 
ATOM     13  N   UNL     1      27.328  23.479  23.910  0.00  0.00    +0.000 NA
BRANCH  12  18
ATOM     14  O   UNL     1      33.465  24.591  25.382  0.00  0.00    +0.000 OA
ATOM     15  C   UNL     1      32.116  24.212  25.252  0.00  0.00    +0.000 A 
ATOM     16  C   UNL     1      31.119  25.006  25.778  0.00  0.00    +0.000 A 
ATOM     17  C   UNL     1      29.793  24.640  25.655  0.00  0.00    +0.000 A 
ATOM     18  C   UNL     1      29.413  23.486  25.013  0.00  0.00    +0.000 A 
ATOM     19  C   UNL     1      30.426  22.706  24.492  0.00  0.00    +0.000 A 
ATOM     20  C   UNL     1      31.760  23.050  24.603  0.00  0.00    +0.000 A 
ENDBRANCH  12  18
ENDBRANCH   1  13
TORSDOF 3
ENDMDL
MODEL 9
REMARK VINA RESULT:      -5.4     31.899     33.277
REMARK  Name = 
REMARK  3 active torsions:
REMARK  status: ('A' for Active; 'I' for Inactive)
REMARK    1  A    between atoms: C_5  and  C_6
REMARK    2  A    between atoms: N_7  and  C_8
REMARK    3  A    between atoms: C_11  and  N_12
REMARK                            x       y       z     vdW  Elec       q    Type
REMARK                         _______ _______ _______ _____ _____    ______ ____
ROOT
ATOM      1  C   UNL     1      23.453  -8.454  24.497  0.00  0.00    +0.000 A 
ATOM      2  C   UNL     1      23.176  -7.116  24.281  0.00  0.00    +0.000 A 
ATOM      3  C   UNL     1      21.996  -6.552  24.720  0.00  0.00    +0.000 A 
ATOM      4  C   UNL     1      21.046  -7.271  25.384  0.00  0.00    +0.000 A 
ATOM      5  C   UNL     1      21.309  -8.617  25.608  0.00  0.00    +0.000 A 
ATOM      6  C   UNL     1      22.488  -9.185  25.172  0.00  0.00    +0.000 A 
ENDROOT
BRANCH   4   7
ATOM      7  N   UNL     1      19.854  -6.649  25.813  0.00  0.00    +0.000 N 
ATOM      8  C   UNL     1      18.629  -7.329  26.147  0.00  0.00    +0.000 C 
ATOM      9  C   UNL     1      17.910  -6.435  27.110  0.00  0.00    +0.000 C 
ATOM     10  C   UNL     1      18.450  -5.067  26.852  0.00  0.00    +0.000 C 
ATOM     11  C   UNL     1      19.680  -5.225  25.985  0.00  0.00    +0.000 C 
ENDBRANCH   4   7
BRANCH   1  13
ATOM     12  C   UNL     1      24.721  -9.586  22.913  0.00  0.00    +0.000 C 
ATOM     13  N   UNL     1      24.647  -9.085  24.065  0.00  0.00    +0.000 NA
BRANCH  12  18
ATOM     14  O   UNL     1      20.421  -9.149  19.253  0.00  0.00    +0.000 OA
ATOM     15  C   UNL     1      21.486  -9.267  20.166  0.00  0.00    +0.000 A 
ATOM     16  C   UNL     1      21.564 -10.358  21.005  0.00  0.00    +0.000 A 
ATOM     17  C   UNL     1      22.606 -10.479  21.903  0.00  0.00    +0.000 A 
ATOM     18  C   UNL     1      23.597  -9.532  22.000  0.00  0.00    +0.000 A 
ATOM     19  C   UNL     1      23.502  -8.448  21.151  0.00  0.00    +0.000 A 
ATOM     20  C   UNL     1      22.469  -8.304  20.243  0.00  0.00    +0.000 A 
ENDBRANCH  12  18
ENDBRANCH   1  13
TORSDOF 3
ENDMDL
MODEL 10
REMARK VINA RESULT:      -5.4      2.404      3.274
REMARK  Name = 
REMARK  3 active torsions:
REMARK  status: ('A' for Active; 'I' for Inactive)
REMARK    1  A    between atoms: C_5  and  C_6
REMARK    2  A    between atoms: N_7  and  C_8
REMARK    3  A    between atoms: C_11  and  N_12
REMARK                            x       y       z     vdW  Elec       q    Type
REMARK                         _______ _______ _______ _____ _____    ______ ____
ROOT
ATOM      1  C   UNL     1      29.424  23.045  26.564  0.00  0.00    +0.000 A 
ATOM      2  C   UNL     1      28.200  22.403  26.588  0.00  0.00    +0.000 A 
ATOM      3  C   UNL     1      27.105  22.976  27.200  0.00  0.00    +0.000 A 
ATOM      4  C   UNL     1      27.165  24.194  27.810  0.00  0.00    +0.000 A 
ATOM      5  C   UNL     1      28.389  24.852  27.796  0.00  0.00    +0.000 A 
ATOM      6  C   UNL     1      29.486  24.283  27.185  0.00  0.00    +0.000 A 
ENDROOT
BRANCH   4   7
ATOM      7  N   UNL     1      26.017  24.740  28.423  0.00  0.00    +0.000 N 
ATOM      8  C   UNL     1      25.717  24.690  29.831  0.00  0.00    +0.000 C 
ATOM      9  C   UNL     1      24.832  25.867  30.107  0.00  0.00    +0.000 C 
ATOM     10  C   UNL     1      24.206  26.202  28.793  0.00  0.00    +0.000 C 
ATOM     11  C   UNL     1      24.960  25.437  27.727  0.00  0.00    +0.000 C 
ENDBRANCH   4   7
BRANCH   1  13
ATOM     12  C   UNL     1      30.809  22.695  24.730  0.00  0.00    +0.000 C 
ATOM     13  N   UNL     1      30.582  22.500  25.953  0.00  0.00    +0.000 NA
BRANCH  12  18
ATOM     14  O   UNL     1      27.410  25.958  21.589  0.00  0.00    +0.000 OA
ATOM     15  C   UNL     1      28.249  25.139  22.368  0.00  0.00    +0.000 A 
ATOM     16  C   UNL     1      27.947  23.806  22.544  0.00  0.00    +0.000 A 
ATOM     17  C   UNL     1      28.765  22.997  23.308  0.00  0.00    +0.000 A 
ATOM     18  C   UNL     1      29.900  23.477  23.916  0.00  0.00    +0.000 A 
ATOM     19  C   UNL     1      30.186  24.813  23.727  0.00  0.00    +0.000 A 
ATOM     20  C   UNL     1      29.382  25.644  22.968  0.00  0.00    +0.000 A 
ENDBRANCH  12  18
ENDBRANCH   1  13
TORSDOF 3
ENDMDL
