MODEL 1
REMARK VINA RESULT:      -8.3      0.000      0.000
REMARK  Name = 
REMARK  6 active torsions:
REMARK  status: ('A' for Active; 'I' for Inactive)
REMARK    1  A    between atoms: O_2  and  C_3
REMARK    2  A    between atoms: C_6  and  C_7
REMARK    3  A    between atoms: C_9  and  C_10
REMARK    4  A    between atoms: N_12  and  C_13
REMARK    5  A    between atoms: C_16  and  C_17
REMARK    6  A    between atoms: C_29  and  O_30
REMARK                            x       y       z     vdW  Elec       q    Type
REMARK                         _______ _______ _______ _____ _____    ______ ____
ROOT
ATOM      1  C   UNL     1      35.712   5.054  13.822  0.00  0.00    +0.000 A 
ATOM      2  C   UNL     1      36.908   5.313  14.474  0.00  0.00    +0.000 A 
ATOM      3  C   UNL     1      37.249   4.516  15.543  0.00  0.00    +0.000 A 
ATOM      4  C   UNL     1      36.408   3.496  15.935  0.00  0.00    +0.000 A 
ATOM      5  C   UNL     1      36.732   2.687  17.005  0.00  0.00    +0.000 A 
ATOM      6  C   UNL     1      35.897   1.673  17.395  0.00  0.00    +0.000 A 
ATOM      7  C   UNL     1      34.725   1.449  16.726  0.00  0.00    +0.000 A 
ATOM      8  C   UNL     1      34.408   2.256  15.665  0.00  0.00    +0.000 A 
ATOM      9  C   UNL     1      35.224   3.266  15.264  0.00  0.00    +0.000 A 
ATOM     10  N   UNL     1      34.913   4.067  14.213  0.00  0.00    +0.000 NA
ENDROOT
BRANCH   1  14
ATOM     11  C   UNL     1      34.526   7.450  10.525  0.00  0.00    +0.000 A 
ATOM     12  C   UNL     1      35.579   6.555  10.404  0.00  0.00    +0.000 A 
ATOM     13  C   UNL     1      35.962   5.780  11.475  0.00  0.00    +0.000 A 
ATOM     14  C   UNL     1      35.310   5.878  12.677  0.00  0.00    +0.000 A 
ATOM     15  C   UNL     1      34.275   6.749  12.816  0.00  0.00    +0.000 A 
ATOM     16  C   UNL     1      33.905   7.512  11.747  0.00  0.00    +0.000 A 
BRANCH  11  18
ATOM     17  C   UNL     1      34.240   7.721   8.155  0.00  0.00    +0.000 C 
ATOM     18  O   UNL     1      34.121   8.241   9.465  0.00  0.00    +0.000 OA
ENDBRANCH  11  18
BRANCH  15  19
ATOM     19  O   UNL     1      33.569   6.897  14.009  0.00  0.00    +0.000 OA
ATOM     20  C   UNL     1      33.656   8.062  14.783  0.00  0.00    +0.000 C 
ENDBRANCH  15  19
ENDBRANCH   1  14
BRANCH   3  21
ATOM     21  C   UNL     1      38.484   4.728  16.273  0.00  0.00    +0.000 C 
ATOM     22  O   UNL     1      39.495   3.974  16.129  0.00  0.00    +0.000 OA
ATOM     23  N   UNL     1      38.588   5.789  17.173  0.00  0.00    +0.000 NA
BRANCH  23  24
ATOM     24  C   UNL     1      39.762   6.058  17.922  0.00  0.00    +0.000 A 
ATOM     25  C   UNL     1      40.940   6.339  17.257  0.00  0.00    +0.000 A 
ATOM     26  C   UNL     1      42.049   6.591  18.037  0.00  0.00    +0.000 A 
ATOM     27  C   UNL     1      42.009   6.569  19.424  0.00  0.00    +0.000 A 
ATOM     28  C   UNL     1      40.831   6.289  20.049  0.00  0.00    +0.000 A 
ATOM     29  C   UNL     1      39.700   6.031  19.302  0.00  0.00    +0.000 A 
BRANCH  27  30
ATOM     30  C   UNL     1      43.276   6.860  20.143  0.00  0.00    +0.000 C 
ATOM     31  C   UNL     1      44.467   6.849  19.241  0.00  0.00    +0.000 C 
ATOM     32  C   UNL     1      43.436   6.050  21.386  0.00  0.00    +0.000 C 
ENDBRANCH  27  30
ENDBRANCH  23  24
ENDBRANCH   3  21
TORSDOF 6
ENDMDL
MODEL 2
REMARK VINA RESULT:      -8.2      2.913      8.907
REMARK  Name = 
REMARK  6 active torsions:
REMARK  status: ('A' for Active; 'I' for Inactive)
REMARK    1  A    between atoms: O_2  and  C_3
REMARK    2  A    between atoms: C_6  and  C_7
REMARK    3  A    between atoms: C_9  and  C_10
REMARK    4  A    between atoms: N_12  and  C_13
REMARK    5  A    between atoms: C_16  and  C_17
REMARK    6  A    between atoms: C_29  and  O_30
REMARK                            x       y       z     vdW  Elec       q    Type
REMARK                         _______ _______ _______ _____ _____    ______ ____
ROOT
ATOM      1  C   UNL     1      38.752   5.507  16.907  0.00  0.00    +0.000 A 
ATOM      2  C   UNL     1      38.200   4.239  16.996  0.00  0.00    +0.000 A 
ATOM      3  C   UNL     1      37.220   3.893  16.094  0.00  0.00    +0.000 A 
ATOM      4  C   UNL     1      36.815   4.800  15.139  0.00  0.00    +0.000 A 
ATOM      5  C   UNL     1      35.833   4.474  14.226  0.00  0.00    +0.000 A 
ATOM      6  C   UNL     1      35.431   5.375  13.276  0.00  0.00    +0.000 A 
ATOM      7  C   UNL     1      35.999   6.618  13.220  0.00  0.00    +0.000 A 
ATOM      8  C   UNL     1      36.973   6.938  14.129  0.00  0.00    +0.000 A 
ATOM      9  C   UNL     1      37.385   6.057  15.078  0.00  0.00    +0.000 A 
ATOM     10  N   UNL     1      38.350   6.371  15.980  0.00  0.00    +0.000 NA
ENDROOT
BRANCH   1  14
ATOM     11  C   UNL     1      41.804   6.695  19.607  0.00  0.00    +0.000 A 
ATOM     12  C   UNL     1      40.527   6.409  20.067  0.00  0.00    +0.000 A 
ATOM     13  C   UNL     1      39.539   6.025  19.190  0.00  0.00    +0.000 A 
ATOM     14  C   UNL     1      39.800   5.918  17.848  0.00  0.00    +0.000 A 
ATOM     15  C   UNL     1      41.045   6.193  17.377  0.00  0.00    +0.000 A 
ATOM     16  C   UNL     1      42.016   6.574  18.257  0.00  0.00    +0.000 A 
BRANCH  11  18
ATOM     17  C   UNL     1      43.253   6.164  21.449  0.00  0.00    +0.000 C 
ATOM     18  O   UNL     1      42.815   7.084  20.468  0.00  0.00    +0.000 OA
ENDBRANCH  11  18
BRANCH  15  19
ATOM     19  O   UNL     1      41.378   6.103  16.025  0.00  0.00    +0.000 OA
ATOM     20  C   UNL     1      42.617   6.534  15.536  0.00  0.00    +0.000 C 
ENDBRANCH  15  19
ENDBRANCH   1  14
BRANCH   3  21
ATOM     21  C   UNL     1      36.597   2.584  16.128  0.00  0.00    +0.000 C 
ATOM     22  O   UNL     1      35.353   2.429  16.328  0.00  0.00    +0.000 OA
ATOM     23  N   UNL     1      37.372   1.439  15.937  0.00  0.00    +0.000 NA
BRANCH  23  24
ATOM     24  C   UNL     1      36.833   0.127  15.956  0.00  0.00    +0.000 A 
ATOM     25  C   UNL     1      36.647  -0.547  14.765  0.00  0.00    +0.000 A 
ATOM     26  C   UNL     1      36.119  -1.818  14.845  0.00  0.00    +0.000 A 
ATOM     27  C   UNL     1      35.782  -2.413  16.052  0.00  0.00    +0.000 A 
ATOM     28  C   UNL     1      35.977  -1.722  17.210  0.00  0.00    +0.000 A 
ATOM     29  C   UNL     1      36.504  -0.447  17.170  0.00  0.00    +0.000 A 
BRANCH  27  30
ATOM     30  C   UNL     1      35.222  -3.789  15.997  0.00  0.00    +0.000 C 
ATOM     31  C   UNL     1      36.247  -4.840  16.276  0.00  0.00    +0.000 C 
ATOM     32  C   UNL     1      34.405  -4.033  14.772  0.00  0.00    +0.000 C 
ENDBRANCH  27  30
ENDBRANCH  23  24
ENDBRANCH   3  21
TORSDOF 6
ENDMDL
MODEL 3
REMARK VINA RESULT:      -8.1     24.011     27.758
REMARK  Name = 
REMARK  6 active torsions:
REMARK  status: ('A' for Active; 'I' for Inactive)
REMARK    1  A    between atoms: O_2  and  C_3
REMARK    2  A    between atoms: C_6  and  C_7
REMARK    3  A    between atoms: C_9  and  C_10
REMARK    4  A    between atoms: N_12  and  C_13
REMARK    5  A    between atoms: C_16  and  C_17
REMARK    6  A    between atoms: C_29  and  O_30
REMARK                            x       y       z     vdW  Elec       q    Type
REMARK                         _______ _______ _______ _____ _____    ______ ____
ROOT
ATOM      1  C   UNL     1      13.466   0.118  30.789  0.00  0.00    +0.000 A 
ATOM      2  C   UNL     1      14.383  -0.163  29.788  0.00  0.00    +0.000 A 
ATOM      3  C   UNL     1      14.116   0.292  28.517  0.00  0.00    +0.000 A 
ATOM      4  C   UNL     1      12.962   1.005  28.272  0.00  0.00    +0.000 A 
ATOM      5  C   UNL     1      12.675   1.470  27.005  0.00  0.00    +0.000 A 
ATOM      6  C   UNL     1      11.528   2.178  26.760  0.00  0.00    +0.000 A 
ATOM      7  C   UNL     1      10.647   2.435  27.774  0.00  0.00    +0.000 A 
ATOM      8  C   UNL     1      10.936   1.971  29.031  0.00  0.00    +0.000 A 
ATOM      9  C   UNL     1      12.069   1.267  29.292  0.00  0.00    +0.000 A 
ATOM     10  N   UNL     1      12.358   0.807  30.536  0.00  0.00    +0.000 NA
ENDROOT
BRANCH   1  14
ATOM     11  C   UNL     1      14.189  -1.204  34.757  0.00  0.00    +0.000 A 
ATOM     12  C   UNL     1      13.561  -2.033  33.841  0.00  0.00    +0.000 A 
ATOM     13  C   UNL     1      13.327  -1.602  32.555  0.00  0.00    +0.000 A 
ATOM     14  C   UNL     1      13.711  -0.347  32.159  0.00  0.00    +0.000 A 
ATOM     15  C   UNL     1      14.329   0.481  33.041  0.00  0.00    +0.000 A 
ATOM     16  C   UNL     1      14.555   0.043  34.314  0.00  0.00    +0.000 A 
BRANCH  11  18
ATOM     17  C   UNL     1      15.267  -2.739  36.260  0.00  0.00    +0.000 C 
ATOM     18  O   UNL     1      14.436  -1.612  36.056  0.00  0.00    +0.000 OA
ENDBRANCH  11  18
BRANCH  15  19
ATOM     19  O   UNL     1      14.746   1.769  32.704  0.00  0.00    +0.000 OA
ATOM     20  C   UNL     1      14.295   2.900  33.395  0.00  0.00    +0.000 C 
ENDBRANCH  15  19
ENDBRANCH   1  14
BRANCH   3  21
ATOM     21  C   UNL     1      15.029   0.036  27.421  0.00  0.00    +0.000 C 
ATOM     22  O   UNL     1      14.647  -0.478  26.325  0.00  0.00    +0.000 OA
ATOM     23  N   UNL     1      16.382   0.355  27.551  0.00  0.00    +0.000 NA
BRANCH  23  24
ATOM     24  C   UNL     1      17.333   0.134  26.522  0.00  0.00    +0.000 A 
ATOM     25  C   UNL     1      17.664   1.170  25.671  0.00  0.00    +0.000 A 
ATOM     26  C   UNL     1      18.593   0.895  24.689  0.00  0.00    +0.000 A 
ATOM     27  C   UNL     1      19.180  -0.353  24.544  0.00  0.00    +0.000 A 
ATOM     28  C   UNL     1      18.832  -1.354  25.400  0.00  0.00    +0.000 A 
ATOM     29  C   UNL     1      17.905  -1.118  26.395  0.00  0.00    +0.000 A 
BRANCH  27  30
ATOM     30  C   UNL     1      20.167  -0.514  23.445  0.00  0.00    +0.000 C 
ATOM     31  C   UNL     1      20.168   0.641  22.496  0.00  0.00    +0.000 C 
ATOM     32  C   UNL     1      20.091  -1.851  22.788  0.00  0.00    +0.000 C 
ENDBRANCH  27  30
ENDBRANCH  23  24
ENDBRANCH   3  21
TORSDOF 6
ENDMDL
MODEL 4
REMARK VINA RESULT:      -8.0      4.411      7.924
REMARK  Name = 
REMARK  6 active torsions:
REMARK  status: ('A' for Active; 'I' for Inactive)
REMARK    1  A    between atoms: O_2  and  C_3
REMARK    2  A    between atoms: C_6  and  C_7
REMARK    3  A    between atoms: C_9  and  C_10
REMARK    4  A    between atoms: N_12  and  C_13
REMARK    5  A    between atoms: C_16  and  C_17
REMARK    6  A    between atoms: C_29  and  O_30
REMARK                            x       y       z     vdW  Elec       q    Type
REMARK                         _______ _______ _______ _____ _____    ______ ____
ROOT
ATOM      1  C   UNL     1      37.053  -0.711  14.622  0.00  0.00    +0.000 A 
ATOM      2  C   UNL     1      37.048   0.387  15.470  0.00  0.00    +0.000 A 
ATOM      3  C   UNL     1      37.152   1.640  14.910  0.00  0.00    +0.000 A 
ATOM      4  C   UNL     1      37.258   1.773  13.541  0.00  0.00    +0.000 A 
ATOM      5  C   UNL     1      37.365   3.020  12.960  0.00  0.00    +0.000 A 
ATOM      6  C   UNL     1      37.470   3.154  11.601  0.00  0.00    +0.000 A 
ATOM      7  C   UNL     1      37.472   2.047  10.798  0.00  0.00    +0.000 A 
ATOM      8  C   UNL     1      37.367   0.811  11.380  0.00  0.00    +0.000 A 
ATOM      9  C   UNL     1      37.261   0.659  12.726  0.00  0.00    +0.000 A 
ATOM     10  N   UNL     1      37.156  -0.564  13.305  0.00  0.00    +0.000 NA
ENDROOT
BRANCH   1  14
ATOM     11  C   UNL     1      36.763  -4.627  16.232  0.00  0.00    +0.000 A 
ATOM     12  C   UNL     1      35.656  -4.014  15.664  0.00  0.00    +0.000 A 
ATOM     13  C   UNL     1      35.752  -2.743  15.143  0.00  0.00    +0.000 A 
ATOM     14  C   UNL     1      36.943  -2.064  15.176  0.00  0.00    +0.000 A 
ATOM     15  C   UNL     1      38.039  -2.647  15.728  0.00  0.00    +0.000 A 
ATOM     16  C   UNL     1      37.931  -3.907  16.242  0.00  0.00    +0.000 A 
BRANCH  11  18
ATOM     17  C   UNL     1      35.546  -6.684  16.486  0.00  0.00    +0.000 C 
ATOM     18  O   UNL     1      36.693  -5.902  16.763  0.00  0.00    +0.000 OA
ENDBRANCH  11  18
BRANCH  15  19
ATOM     19  O   UNL     1      39.280  -2.013  15.793  0.00  0.00    +0.000 OA
ATOM     20  C   UNL     1      40.377  -2.450  15.042  0.00  0.00    +0.000 C 
ENDBRANCH  15  19
ENDBRANCH   1  14
BRANCH   3  21
ATOM     21  C   UNL     1      37.154   2.832  15.734  0.00  0.00    +0.000 C 
ATOM     22  O   UNL     1      36.091   3.312  16.235  0.00  0.00    +0.000 OA
ATOM     23  N   UNL     1      38.353   3.495  15.997  0.00  0.00    +0.000 NA
BRANCH  23  24
ATOM     24  C   UNL     1      38.433   4.666  16.794  0.00  0.00    +0.000 A 
ATOM     25  C   UNL     1      38.814   4.561  18.117  0.00  0.00    +0.000 A 
ATOM     26  C   UNL     1      38.872   5.733  18.842  0.00  0.00    +0.000 A 
ATOM     27  C   UNL     1      38.567   6.969  18.292  0.00  0.00    +0.000 A 
ATOM     28  C   UNL     1      38.194   7.039  16.983  0.00  0.00    +0.000 A 
ATOM     29  C   UNL     1      38.124   5.888  16.225  0.00  0.00    +0.000 A 
BRANCH  27  30
ATOM     30  C   UNL     1      38.671   8.153  19.184  0.00  0.00    +0.000 C 
ATOM     31  C   UNL     1      39.542   7.904  20.372  0.00  0.00    +0.000 C 
ATOM     32  C   UNL     1      37.344   8.754  19.507  0.00  0.00    +0.000 C 
ENDBRANCH  27  30
ENDBRANCH  23  24
ENDBRANCH   3  21
TORSDOF 6
ENDMDL
MODEL 5
REMARK VINA RESULT:      -7.8      2.698      6.232
REMARK  Name = 
REMARK  6 active torsions:
REMARK  status: ('A' for Active; 'I' for Inactive)
REMARK    1  A    between atoms: O_2  and  C_3
REMARK    2  A    between atoms: C_6  and  C_7
REMARK    3  A    between atoms: C_9  and  C_10
REMARK    4  A    between atoms: N_12  and  C_13
REMARK    5  A    between atoms: C_16  and  C_17
REMARK    6  A    between atoms: C_29  and  O_30
REMARK                            x       y       z     vdW  Elec       q    Type
REMARK                         _______ _______ _______ _____ _____    ______ ____
ROOT
ATOM      1  C   UNL     1      36.459   5.559  13.788  0.00  0.00    +0.000 A 
ATOM      2  C   UNL     1      36.580   4.189  13.959  0.00  0.00    +0.000 A 
ATOM      3  C   UNL     1      37.231   3.731  15.082  0.00  0.00    +0.000 A 
ATOM      4  C   UNL     1      37.741   4.629  15.995  0.00  0.00    +0.000 A 
ATOM      5  C   UNL     1      38.397   4.191  17.127  0.00  0.00    +0.000 A 
ATOM      6  C   UNL     1      38.903   5.083  18.035  0.00  0.00    +0.000 A 
ATOM      7  C   UNL     1      38.764   6.428  17.830  0.00  0.00    +0.000 A 
ATOM      8  C   UNL     1      38.112   6.859  16.704  0.00  0.00    +0.000 A 
ATOM      9  C   UNL     1      37.604   5.988  15.794  0.00  0.00    +0.000 A 
ATOM     10  N   UNL     1      36.956   6.412  14.678  0.00  0.00    +0.000 NA
ENDROOT
BRANCH   1  14
ATOM     11  C   UNL     1      34.448   7.104  10.384  0.00  0.00    +0.000 A 
ATOM     12  C   UNL     1      35.722   6.568  10.268  0.00  0.00    +0.000 A 
ATOM     13  C   UNL     1      36.372   6.068  11.373  0.00  0.00    +0.000 A 
ATOM     14  C   UNL     1      35.772   6.091  12.606  0.00  0.00    +0.000 A 
ATOM     15  C   UNL     1      34.525   6.613  12.741  0.00  0.00    +0.000 A 
ATOM     16  C   UNL     1      33.890   7.106  11.638  0.00  0.00    +0.000 A 
BRANCH  11  18
ATOM     17  C   UNL     1      33.831   6.897   8.071  0.00  0.00    +0.000 C 
ATOM     18  O   UNL     1      33.773   7.614   9.290  0.00  0.00    +0.000 OA
ENDBRANCH  11  18
BRANCH  15  19
ATOM     19  O   UNL     1      33.858   6.667  13.965  0.00  0.00    +0.000 OA
ATOM     20  C   UNL     1      33.646   7.874  14.642  0.00  0.00    +0.000 C 
ENDBRANCH  15  19
ENDBRANCH   1  14
BRANCH   3  21
ATOM     21  C   UNL     1      37.396   2.311  15.328  0.00  0.00    +0.000 C 
ATOM     22  O   UNL     1      38.525   1.736  15.251  0.00  0.00    +0.000 OA
ATOM     23  N   UNL     1      36.289   1.529  15.660  0.00  0.00    +0.000 NA
BRANCH  23  24
ATOM     24  C   UNL     1      36.373   0.136  15.914  0.00  0.00    +0.000 A 
ATOM     25  C   UNL     1      36.398  -0.747  14.852  0.00  0.00    +0.000 A 
ATOM     26  C   UNL     1      36.480  -2.089  15.161  0.00  0.00    +0.000 A 
ATOM     27  C   UNL     1      36.535  -2.554  16.466  0.00  0.00    +0.000 A 
ATOM     28  C   UNL     1      36.509  -1.657  17.492  0.00  0.00    +0.000 A 
ATOM     29  C   UNL     1      36.427  -0.306  17.223  0.00  0.00    +0.000 A 
BRANCH  27  30
ATOM     30  C   UNL     1      36.622  -4.025  16.658  0.00  0.00    +0.000 C 
ATOM     31  C   UNL     1      38.020  -4.494  16.896  0.00  0.00    +0.000 C 
ATOM     32  C   UNL     1      35.883  -4.791  15.612  0.00  0.00    +0.000 C 
ENDBRANCH  27  30
ENDBRANCH  23  24
ENDBRANCH   3  21
TORSDOF 6
ENDMDL
MODEL 6
REMARK VINA RESULT:      -7.6      5.757      9.472
REMARK  Name = 
REMARK  6 active torsions:
REMARK  status: ('A' for Active; 'I' for Inactive)
REMARK    1  A    between atoms: O_2  and  C_3
REMARK    2  A    between atoms: C_6  and  C_7
REMARK    3  A    between atoms: C_9  and  C_10
REMARK    4  A    between atoms: N_12  and  C_13
REMARK    5  A    between atoms: C_16  and  C_17
REMARK    6  A    between atoms: C_29  and  O_30
REMARK                            x       y       z     vdW  Elec       q    Type
REMARK                         _______ _______ _______ _____ _____    ______ ____
ROOT
ATOM      1  C   UNL     1      40.118  -1.355  14.576  0.00  0.00    +0.000 A 
ATOM      2  C   UNL     1      39.643  -0.062  14.423  0.00  0.00    +0.000 A 
ATOM      3  C   UNL     1      38.449   0.266  15.022  0.00  0.00    +0.000 A 
ATOM      4  C   UNL     1      37.761  -0.683  15.748  0.00  0.00    +0.000 A 
ATOM      5  C   UNL     1      36.562  -0.375  16.356  0.00  0.00    +0.000 A 
ATOM      6  C   UNL     1      35.878  -1.318  17.078  0.00  0.00    +0.000 A 
ATOM      7  C   UNL     1      36.379  -2.585  17.206  0.00  0.00    +0.000 A 
ATOM      8  C   UNL     1      37.571  -2.886  16.600  0.00  0.00    +0.000 A 
ATOM      9  C   UNL     1      38.262  -1.963  15.880  0.00  0.00    +0.000 A 
ATOM     10  N   UNL     1      39.443  -2.259  15.280  0.00  0.00    +0.000 NA
ENDROOT
BRANCH   1  14
ATOM     11  C   UNL     1      43.777  -2.501  12.757  0.00  0.00    +0.000 A 
ATOM     12  C   UNL     1      43.767  -1.919  14.015  0.00  0.00    +0.000 A 
ATOM     13  C   UNL     1      42.579  -1.547  14.603  0.00  0.00    +0.000 A 
ATOM     14  C   UNL     1      41.388  -1.748  13.955  0.00  0.00    +0.000 A 
ATOM     15  C   UNL     1      41.376  -2.317  12.721  0.00  0.00    +0.000 A 
ATOM     16  C   UNL     1      42.560  -2.681  12.149  0.00  0.00    +0.000 A 
BRANCH  11  18
ATOM     17  C   UNL     1      45.317  -4.251  12.171  0.00  0.00    +0.000 C 
ATOM     18  O   UNL     1      44.957  -2.883  12.143  0.00  0.00    +0.000 OA
ENDBRANCH  11  18
BRANCH  15  19
ATOM     19  O   UNL     1      40.200  -2.550  12.008  0.00  0.00    +0.000 OA
ATOM     20  C   UNL     1      40.193  -2.698  10.616  0.00  0.00    +0.000 C 
ENDBRANCH  15  19
ENDBRANCH   1  14
BRANCH   3  21
ATOM     21  C   UNL     1      37.891   1.599  14.905  0.00  0.00    +0.000 C 
ATOM     22  O   UNL     1      38.226   2.546  15.682  0.00  0.00    +0.000 OA
ATOM     23  N   UNL     1      36.949   1.876  13.913  0.00  0.00    +0.000 NA
BRANCH  23  24
ATOM     24  C   UNL     1      36.361   3.155  13.738  0.00  0.00    +0.000 A 
ATOM     25  C   UNL     1      35.325   3.544  14.564  0.00  0.00    +0.000 A 
ATOM     26  C   UNL     1      34.792   4.797  14.345  0.00  0.00    +0.000 A 
ATOM     27  C   UNL     1      35.258   5.644  13.351  0.00  0.00    +0.000 A 
ATOM     28  C   UNL     1      36.282   5.231  12.552  0.00  0.00    +0.000 A 
ATOM     29  C   UNL     1      36.840   3.983  12.740  0.00  0.00    +0.000 A 
BRANCH  27  30
ATOM     30  C   UNL     1      34.595   6.968  13.224  0.00  0.00    +0.000 C 
ATOM     31  C   UNL     1      33.668   7.260  14.358  0.00  0.00    +0.000 C 
ATOM     32  C   UNL     1      34.006   7.195  11.872  0.00  0.00    +0.000 C 
ENDBRANCH  27  30
ENDBRANCH  23  24
ENDBRANCH   3  21
TORSDOF 6
ENDMDL
MODEL 7
REMARK VINA RESULT:      -7.6      5.545      9.934
REMARK  Name = 
REMARK  6 active torsions:
REMARK  status: ('A' for Active; 'I' for Inactive)
REMARK    1  A    between atoms: O_2  and  C_3
REMARK    2  A    between atoms: C_6  and  C_7
REMARK    3  A    between atoms: C_9  and  C_10
REMARK    4  A    between atoms: N_12  and  C_13
REMARK    5  A    between atoms: C_16  and  C_17
REMARK    6  A    between atoms: C_29  and  O_30
REMARK                            x       y       z     vdW  Elec       q    Type
REMARK                         _______ _______ _______ _____ _____    ______ ____
ROOT
ATOM      1  C   UNL     1      38.070  -2.573  15.278  0.00  0.00    +0.000 A 
ATOM      2  C   UNL     1      37.453  -1.333  15.340  0.00  0.00    +0.000 A 
ATOM      3  C   UNL     1      38.195  -0.221  15.012  0.00  0.00    +0.000 A 
ATOM      4  C   UNL     1      39.514  -0.363  14.635  0.00  0.00    +0.000 A 
ATOM      5  C   UNL     1      40.275   0.738  14.303  0.00  0.00    +0.000 A 
ATOM      6  C   UNL     1      41.586   0.598  13.929  0.00  0.00    +0.000 A 
ATOM      7  C   UNL     1      42.160  -0.642  13.880  0.00  0.00    +0.000 A 
ATOM      8  C   UNL     1      41.399  -1.733  14.211  0.00  0.00    +0.000 A 
ATOM      9  C   UNL     1      40.099  -1.613  14.585  0.00  0.00    +0.000 A 
ATOM     10  N   UNL     1      39.343  -2.692  14.913  0.00  0.00    +0.000 NA
ENDROOT
BRANCH   1  14
ATOM     11  C   UNL     1      35.907  -6.083  16.285  0.00  0.00    +0.000 A 
ATOM     12  C   UNL     1      35.502  -5.284  15.226  0.00  0.00    +0.000 A 
ATOM     13  C   UNL     1      36.205  -4.146  14.902  0.00  0.00    +0.000 A 
ATOM     14  C   UNL     1      37.316  -3.784  15.619  0.00  0.00    +0.000 A 
ATOM     15  C   UNL     1      37.730  -4.553  16.660  0.00  0.00    +0.000 A 
ATOM     16  C   UNL     1      37.025  -5.679  16.972  0.00  0.00    +0.000 A 
BRANCH  11  18
ATOM     17  C   UNL     1      33.987  -7.497  15.988  0.00  0.00    +0.000 C 
ATOM     18  O   UNL     1      35.218  -7.232  16.632  0.00  0.00    +0.000 OA
ENDBRANCH  11  18
BRANCH  15  19
ATOM     19  O   UNL     1      38.851  -4.243  17.429  0.00  0.00    +0.000 OA
ATOM     20  C   UNL     1      38.742  -3.768  18.742  0.00  0.00    +0.000 C 
ENDBRANCH  15  19
ENDBRANCH   1  14
BRANCH   3  21
ATOM     21  C   UNL     1      37.616   1.107  15.054  0.00  0.00    +0.000 C 
ATOM     22  O   UNL     1      37.773   1.884  16.046  0.00  0.00    +0.000 OA
ATOM     23  N   UNL     1      36.854   1.570  13.980  0.00  0.00    +0.000 NA
BRANCH  23  24
ATOM     24  C   UNL     1      36.258   2.857  13.951  0.00  0.00    +0.000 A 
ATOM     25  C   UNL     1      36.830   3.852  13.182  0.00  0.00    +0.000 A 
ATOM     26  C   UNL     1      36.207   5.082  13.193  0.00  0.00    +0.000 A 
ATOM     27  C   UNL     1      35.061   5.333  13.934  0.00  0.00    +0.000 A 
ATOM     28  C   UNL     1      34.521   4.330  14.682  0.00  0.00    +0.000 A 
ATOM     29  C   UNL     1      35.117   3.085  14.696  0.00  0.00    +0.000 A 
BRANCH  27  30
ATOM     30  C   UNL     1      34.491   6.703  13.856  0.00  0.00    +0.000 C 
ATOM     31  C   UNL     1      33.854   6.989  12.535  0.00  0.00    +0.000 C 
ATOM     32  C   UNL     1      35.442   7.754  14.323  0.00  0.00    +0.000 C 
ENDBRANCH  27  30
ENDBRANCH  23  24
ENDBRANCH   3  21
TORSDOF 6
ENDMDL
MODEL 8
REMARK VINA RESULT:      -7.6      2.724      5.982
REMARK  Name = 
REMARK  6 active torsions:
REMARK  status: ('A' for Active; 'I' for Inactive)
REMARK    1  A    between atoms: O_2  and  C_3
REMARK    2  A    between atoms: C_6  and  C_7
REMARK    3  A    between atoms: C_9  and  C_10
REMARK    4  A    between atoms: N_12  and  C_13
REMARK    5  A    between atoms: C_16  and  C_17
REMARK    6  A    between atoms: C_29  and  O_30
REMARK                            x       y       z     vdW  Elec       q    Type
REMARK                         _______ _______ _______ _____ _____    ______ ____
ROOT
ATOM      1  C   UNL     1      36.299   2.794  15.667  0.00  0.00    +0.000 A 
ATOM      2  C   UNL     1      37.345   3.395  16.351  0.00  0.00    +0.000 A 
ATOM      3  C   UNL     1      37.662   4.697  16.038  0.00  0.00    +0.000 A 
ATOM      4  C   UNL     1      36.945   5.363  15.066  0.00  0.00    +0.000 A 
ATOM      5  C   UNL     1      37.247   6.668  14.736  0.00  0.00    +0.000 A 
ATOM      6  C   UNL     1      36.536   7.331  13.771  0.00  0.00    +0.000 A 
ATOM      7  C   UNL     1      35.511   6.704  13.118  0.00  0.00    +0.000 A 
ATOM      8  C   UNL     1      35.215   5.407  13.449  0.00  0.00    +0.000 A 
ATOM      9  C   UNL     1      35.910   4.735  14.403  0.00  0.00    +0.000 A 
ATOM     10  N   UNL     1      35.618   3.451  14.733  0.00  0.00    +0.000 NA
ENDROOT
BRANCH   1  14
ATOM     11  C   UNL     1      35.241  -1.226  16.524  0.00  0.00    +0.000 A 
ATOM     12  C   UNL     1      34.607  -0.176  17.172  0.00  0.00    +0.000 A 
ATOM     13  C   UNL     1      34.952   1.127  16.893  0.00  0.00    +0.000 A 
ATOM     14  C   UNL     1      35.927   1.408  15.970  0.00  0.00    +0.000 A 
ATOM     15  C   UNL     1      36.560   0.394  15.325  0.00  0.00    +0.000 A 
ATOM     16  C   UNL     1      36.209  -0.894  15.610  0.00  0.00    +0.000 A 
BRANCH  11  18
ATOM     17  C   UNL     1      35.853  -3.549  16.455  0.00  0.00    +0.000 C 
ATOM     18  O   UNL     1      34.913  -2.544  16.787  0.00  0.00    +0.000 OA
ENDBRANCH  11  18
BRANCH  15  19
ATOM     19  O   UNL     1      37.559   0.610  14.376  0.00  0.00    +0.000 OA
ATOM     20  C   UNL     1      38.878   0.186  14.577  0.00  0.00    +0.000 C 
ENDBRANCH  15  19
ENDBRANCH   1  14
BRANCH   3  21
ATOM     21  C   UNL     1      38.743   5.390  16.711  0.00  0.00    +0.000 C 
ATOM     22  O   UNL     1      39.927   5.405  16.255  0.00  0.00    +0.000 OA
ATOM     23  N   UNL     1      38.498   6.069  17.906  0.00  0.00    +0.000 NA
BRANCH  23  24
ATOM     24  C   UNL     1      39.504   6.768  18.620  0.00  0.00    +0.000 A 
ATOM     25  C   UNL     1      40.272   6.092  19.548  0.00  0.00    +0.000 A 
ATOM     26  C   UNL     1      41.233   6.824  20.211  0.00  0.00    +0.000 A 
ATOM     27  C   UNL     1      41.439   8.176  19.976  0.00  0.00    +0.000 A 
ATOM     28  C   UNL     1      40.665   8.814  19.054  0.00  0.00    +0.000 A 
ATOM     29  C   UNL     1      39.692   8.115  18.370  0.00  0.00    +0.000 A 
BRANCH  27  30
ATOM     30  C   UNL     1      42.510   8.845  20.760  0.00  0.00    +0.000 C 
ATOM     31  C   UNL     1      43.166   9.956  20.008  0.00  0.00    +0.000 C 
ATOM     32  C   UNL     1      43.459   7.879  21.387  0.00  0.00    +0.000 C 
ENDBRANCH  27  30
ENDBRANCH  23  24
ENDBRANCH   3  21
TORSDOF 6
ENDMDL
MODEL 9
REMARK VINA RESULT:      -7.5      4.877     10.633
REMARK  Name = 
REMARK  6 active torsions:
REMARK  status: ('A' for Active; 'I' for Inactive)
REMARK    1  A    between atoms: O_2  and  C_3
REMARK    2  A    between atoms: C_6  and  C_7
REMARK    3  A    between atoms: C_9  and  C_10
REMARK    4  A    between atoms: N_12  and  C_13
REMARK    5  A    between atoms: C_16  and  C_17
REMARK    6  A    between atoms: C_29  and  O_30
REMARK                            x       y       z     vdW  Elec       q    Type
REMARK                         _______ _______ _______ _____ _____    ______ ____
ROOT
ATOM      1  C   UNL     1      39.048   0.843  14.327  0.00  0.00    +0.000 A 
ATOM      2  C   UNL     1      38.789   0.907  12.967  0.00  0.00    +0.000 A 
ATOM      3  C   UNL     1      38.712   2.149  12.379  0.00  0.00    +0.000 A 
ATOM      4  C   UNL     1      38.890   3.283  13.143  0.00  0.00    +0.000 A 
ATOM      5  C   UNL     1      38.816   4.537  12.574  0.00  0.00    +0.000 A 
ATOM      6  C   UNL     1      38.994   5.664  13.333  0.00  0.00    +0.000 A 
ATOM      7  C   UNL     1      39.247   5.559  14.673  0.00  0.00    +0.000 A 
ATOM      8  C   UNL     1      39.319   4.311  15.234  0.00  0.00    +0.000 A 
ATOM      9  C   UNL     1      39.146   3.183  14.497  0.00  0.00    +0.000 A 
ATOM     10  N   UNL     1      39.217   1.945  15.050  0.00  0.00    +0.000 NA
ENDROOT
BRANCH   1  14
ATOM     11  C   UNL     1      39.289  -2.922  16.273  0.00  0.00    +0.000 A 
ATOM     12  C   UNL     1      40.249  -2.544  15.347  0.00  0.00    +0.000 A 
ATOM     13  C   UNL     1      40.169  -1.323  14.717  0.00  0.00    +0.000 A 
ATOM     14  C   UNL     1      39.139  -0.461  14.994  0.00  0.00    +0.000 A 
ATOM     15  C   UNL     1      38.188  -0.812  15.899  0.00  0.00    +0.000 A 
ATOM     16  C   UNL     1      38.278  -2.026  16.516  0.00  0.00    +0.000 A 
BRANCH  11  18
ATOM     17  C   UNL     1      38.652  -4.288  18.144  0.00  0.00    +0.000 C 
ATOM     18  O   UNL     1      39.345  -4.144  16.919  0.00  0.00    +0.000 OA
ENDBRANCH  11  18
BRANCH  15  19
ATOM     19  O   UNL     1      37.115   0.017  16.227  0.00  0.00    +0.000 OA
ATOM     20  C   UNL     1      35.797  -0.301  15.877  0.00  0.00    +0.000 C 
ENDBRANCH  15  19
ENDBRANCH   1  14
BRANCH   3  21
ATOM     21  C   UNL     1      38.444   2.293  10.961  0.00  0.00    +0.000 C 
ATOM     22  O   UNL     1      39.363   2.526  10.117  0.00  0.00    +0.000 OA
ATOM     23  N   UNL     1      37.138   2.180  10.484  0.00  0.00    +0.000 NA
BRANCH  23  24
ATOM     24  C   UNL     1      36.800   2.308   9.113  0.00  0.00    +0.000 A 
ATOM     25  C   UNL     1      37.059   1.262   8.249  0.00  0.00    +0.000 A 
ATOM     26  C   UNL     1      36.710   1.445   6.927  0.00  0.00    +0.000 A 
ATOM     27  C   UNL     1      36.127   2.615   6.463  0.00  0.00    +0.000 A 
ATOM     28  C   UNL     1      35.884   3.629   7.340  0.00  0.00    +0.000 A 
ATOM     29  C   UNL     1      36.219   3.483   8.671  0.00  0.00    +0.000 A 
BRANCH  27  30
ATOM     30  C   UNL     1      35.800   2.681   5.015  0.00  0.00    +0.000 C 
ATOM     31  C   UNL     1      34.765   3.713   4.704  0.00  0.00    +0.000 C 
ATOM     32  C   UNL     1      35.532   1.339   4.420  0.00  0.00    +0.000 C 
ENDBRANCH  27  30
ENDBRANCH  23  24
ENDBRANCH   3  21
TORSDOF 6
ENDMDL
MODEL 10
REMARK VINA RESULT:      -7.4      2.651      8.606
REMARK  Name = 
REMARK  6 active torsions:
REMARK  status: ('A' for Active; 'I' for Inactive)
REMARK    1  A    between atoms: O_2  and  C_3
REMARK    2  A    between atoms: C_6  and  C_7
REMARK    3  A    between atoms: C_9  and  C_10
REMARK    4  A    between atoms: N_12  and  C_13
REMARK    5  A    between atoms: C_16  and  C_17
REMARK    6  A    between atoms: C_29  and  O_30
REMARK                            x       y       z     vdW  Elec       q    Type
REMARK                         _______ _______ _______ _____ _____    ______ ____
ROOT
ATOM      1  C   UNL     1      36.802   2.677  16.278  0.00  0.00    +0.000 A 
ATOM      2  C   UNL     1      36.608   3.398  15.110  0.00  0.00    +0.000 A 
ATOM      3  C   UNL     1      37.154   4.659  15.027  0.00  0.00    +0.000 A 
ATOM      4  C   UNL     1      37.869   5.168  16.090  0.00  0.00    +0.000 A 
ATOM      5  C   UNL     1      38.424   6.429  16.028  0.00  0.00    +0.000 A 
ATOM      6  C   UNL     1      39.135   6.936  17.084  0.00  0.00    +0.000 A 
ATOM      7  C   UNL     1      39.305   6.194  18.220  0.00  0.00    +0.000 A 
ATOM      8  C   UNL     1      38.751   4.942  18.277  0.00  0.00    +0.000 A 
ATOM      9  C   UNL     1      38.043   4.423  17.240  0.00  0.00    +0.000 A 
ATOM     10  N   UNL     1      37.495   3.183  17.294  0.00  0.00    +0.000 NA
ENDROOT
BRANCH   1  14
ATOM     11  C   UNL     1      35.194  -1.234  16.642  0.00  0.00    +0.000 A 
ATOM     12  C   UNL     1      34.485  -0.134  17.101  0.00  0.00    +0.000 A 
ATOM     13  C   UNL     1      35.009   1.133  16.982  0.00  0.00    +0.000 A 
ATOM     14  C   UNL     1      36.239   1.329  16.408  0.00  0.00    +0.000 A 
ATOM     15  C   UNL     1      36.949   0.264  15.952  0.00  0.00    +0.000 A 
ATOM     16  C   UNL     1      36.420  -0.987  16.075  0.00  0.00    +0.000 A 
BRANCH  11  18
ATOM     17  C   UNL     1      34.781  -3.372  15.624  0.00  0.00    +0.000 C 
ATOM     18  O   UNL     1      34.691  -2.518  16.749  0.00  0.00    +0.000 OA
ENDBRANCH  11  18
BRANCH  15  19
ATOM     19  O   UNL     1      38.205   0.394  15.357  0.00  0.00    +0.000 OA
ATOM     20  C   UNL     1      38.443   0.002  14.034  0.00  0.00    +0.000 C 
ENDBRANCH  15  19
ENDBRANCH   1  14
BRANCH   3  21
ATOM     21  C   UNL     1      36.992   5.471  13.837  0.00  0.00    +0.000 C 
ATOM     22  O   UNL     1      37.848   5.481  12.900  0.00  0.00    +0.000 OA
ATOM     23  N   UNL     1      35.863   6.280  13.694  0.00  0.00    +0.000 NA
BRANCH  23  24
ATOM     24  C   UNL     1      35.636   7.100  12.560  0.00  0.00    +0.000 A 
ATOM     25  C   UNL     1      35.058   6.552  11.431  0.00  0.00    +0.000 A 
ATOM     26  C   UNL     1      34.863   7.397  10.359  0.00  0.00    +0.000 A 
ATOM     27  C   UNL     1      35.223   8.736  10.388  0.00  0.00    +0.000 A 
ATOM     28  C   UNL     1      35.791   9.247  11.516  0.00  0.00    +0.000 A 
ATOM     29  C   UNL     1      36.002   8.432  12.610  0.00  0.00    +0.000 A 
BRANCH  27  30
ATOM     30  C   UNL     1      34.956   9.535   9.164  0.00  0.00    +0.000 C 
ATOM     31  C   UNL     1      34.487   8.698   8.019  0.00  0.00    +0.000 C 
ATOM     32  C   UNL     1      36.070  10.470   8.828  0.00  0.00    +0.000 C 
ENDBRANCH  27  30
ENDBRANCH  23  24
ENDBRANCH   3  21
TORSDOF 6
ENDMDL
