MODEL 1
REMARK VINA RESULT:      -8.1      0.000      0.000
REMARK  Name = 
REMARK  3 active torsions:
REMARK  status: ('A' for Active; 'I' for Inactive)
REMARK    1  A    between atoms: C_7  and  C_8
REMARK    2  A    between atoms: C_8  and  N_9
REMARK    3  A    between atoms: C_10  and  C_11
REMARK                            x       y       z     vdW  Elec       q    Type
REMARK                         _______ _______ _______ _____ _____    ______ ____
ROOT
ATOM      1  N   UNL     1      16.158  11.828  34.972  0.00  0.00    +0.000 N 
ATOM      2  C   UNL     1      17.182  10.931  35.147  0.00  0.00    +0.000 A 
ATOM      3  N   UNL     1      17.422  10.289  34.057  0.00  0.00    +0.000 NA
ATOM      4  C   UNL     1      16.582  10.710  33.095  0.00  0.00    +0.000 A 
ATOM      5  C   UNL     1      16.397  10.374  31.781  0.00  0.00    +0.000 A 
ATOM      6  C   UNL     1      15.442  10.958  30.987  0.00  0.00    +0.000 A 
ATOM      7  C   UNL     1      14.643  11.926  31.557  0.00  0.00    +0.000 A 
ATOM      8  C   UNL     1      14.843  12.248  32.869  0.00  0.00    +0.000 A 
ATOM      9  C   UNL     1      15.782  11.698  33.710  0.00  0.00    +0.000 A 
ENDROOT
BRANCH   2  10
ATOM     10  C   UNL     1      17.900  10.793  36.570  0.00  0.00    +0.000 C 
ATOM     11  C   UNL     1      19.034   9.727  36.037  0.00  0.00    +0.000 C 
ATOM     12  O   UNL     1      16.997   9.677  37.110  0.00  0.00    +0.000 OA
ENDBRANCH   2  10
BRANCH   1  13
ATOM     13  C   UNL     1      15.659  12.674  35.997  0.00  0.00    +0.000 C 
BRANCH  13  20
ATOM     14  C   UNL     1      12.700  10.005  39.048  0.00  0.00    +0.000 C 
ATOM     15  C   UNL     1      12.947  11.052  38.010  0.00  0.00    +0.000 A 
ATOM     16  C   UNL     1      11.863  11.803  37.562  0.00  0.00    +0.000 A 
ATOM     17  C   UNL     1      11.975  12.793  36.619  0.00  0.00    +0.000 A 
ATOM     18  C   UNL     1      13.242  13.041  36.100  0.00  0.00    +0.000 A 
ATOM     19  C   UNL     1      13.267  14.103  35.046  0.00  0.00    +0.000 C 
ATOM     20  C   UNL     1      14.317  12.325  36.519  0.00  0.00    +0.000 A 
ATOM     21  C   UNL     1      14.187  11.313  37.485  0.00  0.00    +0.000 A 
ENDBRANCH  13  20
ENDBRANCH   1  13
TORSDOF 3
ENDMDL
MODEL 2
REMARK VINA RESULT:      -7.7      1.172      2.189
REMARK  Name = 
REMARK  3 active torsions:
REMARK  status: ('A' for Active; 'I' for Inactive)
REMARK    1  A    between atoms: C_7  and  C_8
REMARK    2  A    between atoms: C_8  and  N_9
REMARK    3  A    between atoms: C_10  and  C_11
REMARK                            x       y       z     vdW  Elec       q    Type
REMARK                         _______ _______ _______ _____ _____    ______ ____
ROOT
ATOM      1  N   UNL     1      15.856  11.647  35.179  0.00  0.00    +0.000 N 
ATOM      2  C   UNL     1      16.594  10.533  34.864  0.00  0.00    +0.000 A 
ATOM      3  N   UNL     1      16.522  10.274  33.604  0.00  0.00    +0.000 NA
ATOM      4  C   UNL     1      15.740  11.189  33.004  0.00  0.00    +0.000 A 
ATOM      5  C   UNL     1      15.327  11.385  31.713  0.00  0.00    +0.000 A 
ATOM      6  C   UNL     1      14.500  12.415  31.341  0.00  0.00    +0.000 A 
ATOM      7  C   UNL     1      14.076  13.281  32.328  0.00  0.00    +0.000 A 
ATOM      8  C   UNL     1      14.499  13.068  33.608  0.00  0.00    +0.000 A 
ATOM      9  C   UNL     1      15.326  12.057  34.038  0.00  0.00    +0.000 A 
ENDROOT
BRANCH   2  10
ATOM     10  C   UNL     1      17.390   9.743  36.005  0.00  0.00    +0.000 C 
ATOM     11  C   UNL     1      18.875  10.143  35.425  0.00  0.00    +0.000 C 
ATOM     12  O   UNL     1      17.397   8.382  35.299  0.00  0.00    +0.000 OA
ENDBRANCH   2  10
BRANCH   1  13
ATOM     13  C   UNL     1      15.732  12.173  36.491  0.00  0.00    +0.000 C 
BRANCH  13  20
ATOM     14  C   UNL     1      10.818  11.417  37.179  0.00  0.00    +0.000 C 
ATOM     15  C   UNL     1      12.255  11.278  37.565  0.00  0.00    +0.000 A 
ATOM     16  C   UNL     1      12.563  10.534  38.702  0.00  0.00    +0.000 A 
ATOM     17  C   UNL     1      13.846  10.335  39.144  0.00  0.00    +0.000 A 
ATOM     18  C   UNL     1      14.873  10.912  38.404  0.00  0.00    +0.000 A 
ATOM     19  C   UNL     1      16.235  10.684  38.980  0.00  0.00    +0.000 C 
ATOM     20  C   UNL     1      14.604  11.641  37.291  0.00  0.00    +0.000 A 
ATOM     21  C   UNL     1      13.284  11.838  36.850  0.00  0.00    +0.000 A 
ENDBRANCH  13  20
ENDBRANCH   1  13
TORSDOF 3
ENDMDL
MODEL 3
REMARK VINA RESULT:      -6.8      4.166      7.017
REMARK  Name = 
REMARK  3 active torsions:
REMARK  status: ('A' for Active; 'I' for Inactive)
REMARK    1  A    between atoms: C_7  and  C_8
REMARK    2  A    between atoms: C_8  and  N_9
REMARK    3  A    between atoms: C_10  and  C_11
REMARK                            x       y       z     vdW  Elec       q    Type
REMARK                         _______ _______ _______ _____ _____    ______ ____
ROOT
ATOM      1  N   UNL     1      19.378   9.788  38.344  0.00  0.00    +0.000 N 
ATOM      2  C   UNL     1      18.906   9.808  37.056  0.00  0.00    +0.000 A 
ATOM      3  N   UNL     1      19.876   9.784  36.210  0.00  0.00    +0.000 NA
ATOM      4  C   UNL     1      21.046   9.746  36.872  0.00  0.00    +0.000 A 
ATOM      5  C   UNL     1      22.358   9.715  36.482  0.00  0.00    +0.000 A 
ATOM      6  C   UNL     1      23.402   9.686  37.372  0.00  0.00    +0.000 A 
ATOM      7  C   UNL     1      23.095   9.690  38.716  0.00  0.00    +0.000 A 
ATOM      8  C   UNL     1      21.781   9.721  39.085  0.00  0.00    +0.000 A 
ATOM      9  C   UNL     1      20.696   9.750  38.240  0.00  0.00    +0.000 A 
ENDROOT
BRANCH   2  10
ATOM     10  C   UNL     1      17.332   9.862  36.773  0.00  0.00    +0.000 C 
ATOM     11  C   UNL     1      17.431   9.056  35.343  0.00  0.00    +0.000 C 
ATOM     12  O   UNL     1      17.327  11.233  36.086  0.00  0.00    +0.000 OA
ENDBRANCH   2  10
BRANCH   1  13
ATOM     13  C   UNL     1      18.548   9.818  39.495  0.00  0.00    +0.000 C 
BRANCH  13  20
ATOM     14  C   UNL     1      19.363   4.924  40.258  0.00  0.00    +0.000 C 
ATOM     15  C   UNL     1      18.553   6.175  40.374  0.00  0.00    +0.000 A 
ATOM     16  C   UNL     1      17.349   6.118  41.073  0.00  0.00    +0.000 A 
ATOM     17  C   UNL     1      16.530   7.204  41.248  0.00  0.00    +0.000 A 
ATOM     18  C   UNL     1      16.942   8.411  40.691  0.00  0.00    +0.000 A 
ATOM     19  C   UNL     1      15.970   9.531  40.889  0.00  0.00    +0.000 C 
ATOM     20  C   UNL     1      18.110   8.497  40.005  0.00  0.00    +0.000 A 
ATOM     21  C   UNL     1      18.940   7.375  39.833  0.00  0.00    +0.000 A 
ENDBRANCH  13  20
ENDBRANCH   1  13
TORSDOF 3
ENDMDL
MODEL 4
REMARK VINA RESULT:      -6.8      1.904      3.794
REMARK  Name = 
REMARK  3 active torsions:
REMARK  status: ('A' for Active; 'I' for Inactive)
REMARK    1  A    between atoms: C_7  and  C_8
REMARK    2  A    between atoms: C_8  and  N_9
REMARK    3  A    between atoms: C_10  and  C_11
REMARK                            x       y       z     vdW  Elec       q    Type
REMARK                         _______ _______ _______ _____ _____    ______ ____
ROOT
ATOM      1  N   UNL     1      15.031  12.199  34.340  0.00  0.00    +0.000 N 
ATOM      2  C   UNL     1      15.144  11.784  33.036  0.00  0.00    +0.000 A 
ATOM      3  N   UNL     1      14.555  12.607  32.240  0.00  0.00    +0.000 NA
ATOM      4  C   UNL     1      14.018  13.613  32.952  0.00  0.00    +0.000 A 
ATOM      5  C   UNL     1      13.295  14.729  32.625  0.00  0.00    +0.000 A 
ATOM      6  C   UNL     1      12.840  15.625  33.560  0.00  0.00    +0.000 A 
ATOM      7  C   UNL     1      13.135  15.373  34.883  0.00  0.00    +0.000 A 
ATOM      8  C   UNL     1      13.857  14.255  35.188  0.00  0.00    +0.000 A 
ATOM      9  C   UNL     1      14.338  13.325  34.297  0.00  0.00    +0.000 A 
ENDROOT
BRANCH   2  10
ATOM     10  C   UNL     1      15.924  10.433  32.683  0.00  0.00    +0.000 C 
ATOM     11  C   UNL     1      16.186  10.844  31.113  0.00  0.00    +0.000 C 
ATOM     12  O   UNL     1      14.682   9.603  32.337  0.00  0.00    +0.000 OA
ENDBRANCH   2  10
BRANCH   1  13
ATOM     13  C   UNL     1      15.569  11.492  35.448  0.00  0.00    +0.000 C 
BRANCH  13  20
ATOM     14  C   UNL     1      10.949  11.274  37.398  0.00  0.00    +0.000 C 
ATOM     15  C   UNL     1      12.439  11.202  37.488  0.00  0.00    +0.000 A 
ATOM     16  C   UNL     1      13.010  10.882  38.718  0.00  0.00    +0.000 A 
ATOM     17  C   UNL     1      14.364  10.782  38.914  0.00  0.00    +0.000 A 
ATOM     18  C   UNL     1      15.187  11.015  37.817  0.00  0.00    +0.000 A 
ATOM     19  C   UNL     1      16.648  10.931  38.128  0.00  0.00    +0.000 C 
ATOM     20  C   UNL     1      14.660  11.328  36.606  0.00  0.00    +0.000 A 
ATOM     21  C   UNL     1      13.270  11.428  36.420  0.00  0.00    +0.000 A 
ENDBRANCH  13  20
ENDBRANCH   1  13
TORSDOF 3
ENDMDL
MODEL 5
REMARK VINA RESULT:      -6.7     18.294     20.170
REMARK  Name = 
REMARK  3 active torsions:
REMARK  status: ('A' for Active; 'I' for Inactive)
REMARK    1  A    between atoms: C_7  and  C_8
REMARK    2  A    between atoms: C_8  and  N_9
REMARK    3  A    between atoms: C_10  and  C_11
REMARK                            x       y       z     vdW  Elec       q    Type
REMARK                         _______ _______ _______ _____ _____    ______ ____
ROOT
ATOM      1  N   UNL     1      26.145  23.745  26.735  0.00  0.00    +0.000 N 
ATOM      2  C   UNL     1      25.459  24.861  26.323  0.00  0.00    +0.000 A 
ATOM      3  N   UNL     1      25.089  25.571  27.332  0.00  0.00    +0.000 NA
ATOM      4  C   UNL     1      25.499  24.982  28.469  0.00  0.00    +0.000 A 
ATOM      5  C   UNL     1      25.377  25.291  29.797  0.00  0.00    +0.000 A 
ATOM      6  C   UNL     1      25.890  24.505  30.798  0.00  0.00    +0.000 A 
ATOM      7  C   UNL     1      26.554  23.355  30.429  0.00  0.00    +0.000 A 
ATOM      8  C   UNL     1      26.665  23.063  29.099  0.00  0.00    +0.000 A 
ATOM      9  C   UNL     1      26.174  23.812  28.056  0.00  0.00    +0.000 A 
ENDROOT
BRANCH   2  10
ATOM     10  C   UNL     1      25.212  25.128  24.765  0.00  0.00    +0.000 C 
ATOM     11  C   UNL     1      26.266  26.387  24.683  0.00  0.00    +0.000 C 
ATOM     12  O   UNL     1      24.002  26.054  24.939  0.00  0.00    +0.000 OA
ENDBRANCH   2  10
BRANCH   1  13
ATOM     13  C   UNL     1      26.670  22.765  25.853  0.00  0.00    +0.000 C 
BRANCH  13  20
ATOM     14  C   UNL     1      31.270  22.063  27.734  0.00  0.00    +0.000 C 
ATOM     15  C   UNL     1      30.317  22.389  26.630  0.00  0.00    +0.000 A 
ATOM     16  C   UNL     1      30.836  22.627  25.360  0.00  0.00    +0.000 A 
ATOM     17  C   UNL     1      30.054  22.927  24.273  0.00  0.00    +0.000 A 
ATOM     18  C   UNL     1      28.679  22.991  24.474  0.00  0.00    +0.000 A 
ATOM     19  C   UNL     1      27.906  23.368  23.250  0.00  0.00    +0.000 C 
ATOM     20  C   UNL     1      28.144  22.763  25.700  0.00  0.00    +0.000 A 
ATOM     21  C   UNL     1      28.957  22.457  26.805  0.00  0.00    +0.000 A 
ENDBRANCH  13  20
ENDBRANCH   1  13
TORSDOF 3
ENDMDL
MODEL 6
REMARK VINA RESULT:      -6.5     18.388     20.219
REMARK  Name = 
REMARK  3 active torsions:
REMARK  status: ('A' for Active; 'I' for Inactive)
REMARK    1  A    between atoms: C_7  and  C_8
REMARK    2  A    between atoms: C_8  and  N_9
REMARK    3  A    between atoms: C_10  and  C_11
REMARK                            x       y       z     vdW  Elec       q    Type
REMARK                         _______ _______ _______ _____ _____    ______ ____
ROOT
ATOM      1  N   UNL     1      26.905  23.106  27.035  0.00  0.00    +0.000 N 
ATOM      2  C   UNL     1      26.837  23.254  28.398  0.00  0.00    +0.000 A 
ATOM      3  N   UNL     1      26.024  24.200  28.717  0.00  0.00    +0.000 NA
ATOM      4  C   UNL     1      25.503  24.739  27.601  0.00  0.00    +0.000 A 
ATOM      5  C   UNL     1      24.614  25.752  27.360  0.00  0.00    +0.000 A 
ATOM      6  C   UNL     1      24.236  26.130  26.096  0.00  0.00    +0.000 A 
ATOM      7  C   UNL     1      24.788  25.447  25.034  0.00  0.00    +0.000 A 
ATOM      8  C   UNL     1      25.673  24.440  25.294  0.00  0.00    +0.000 A 
ATOM      9  C   UNL     1      26.087  24.018  26.536  0.00  0.00    +0.000 A 
ENDROOT
BRANCH   2  10
ATOM     10  C   UNL     1      27.708  22.315  29.356  0.00  0.00    +0.000 C 
ATOM     11  C   UNL     1      26.436  21.889  30.307  0.00  0.00    +0.000 C 
ATOM     12  O   UNL     1      28.155  23.421  30.320  0.00  0.00    +0.000 OA
ENDBRANCH   2  10
BRANCH   1  13
ATOM     13  C   UNL     1      27.726  22.151  26.379  0.00  0.00    +0.000 C 
BRANCH  13  20
ATOM     14  C   UNL     1      29.349  24.446  22.221  0.00  0.00    +0.000 C 
ATOM     15  C   UNL     1      29.548  23.829  23.567  0.00  0.00    +0.000 A 
ATOM     16  C   UNL     1      30.828  23.848  24.118  0.00  0.00    +0.000 A 
ATOM     17  C   UNL     1      31.124  23.318  25.348  0.00  0.00    +0.000 A 
ATOM     18  C   UNL     1      30.080  22.739  26.062  0.00  0.00    +0.000 A 
ATOM     19  C   UNL     1      30.497  22.146  27.371  0.00  0.00    +0.000 C 
ATOM     20  C   UNL     1      28.822  22.708  25.552  0.00  0.00    +0.000 A 
ATOM     21  C   UNL     1      28.533  23.254  24.289  0.00  0.00    +0.000 A 
ENDBRANCH  13  20
ENDBRANCH   1  13
TORSDOF 3
ENDMDL
MODEL 7
REMARK VINA RESULT:      -6.2     20.226     22.851
REMARK  Name = 
REMARK  3 active torsions:
REMARK  status: ('A' for Active; 'I' for Inactive)
REMARK    1  A    between atoms: C_7  and  C_8
REMARK    2  A    between atoms: C_8  and  N_9
REMARK    3  A    between atoms: C_10  and  C_11
REMARK                            x       y       z     vdW  Elec       q    Type
REMARK                         _______ _______ _______ _____ _____    ______ ____
ROOT
ATOM      1  N   UNL     1      18.239  -9.831  27.069  0.00  0.00    +0.000 N 
ATOM      2  C   UNL     1      16.882 -10.039  27.075  0.00  0.00    +0.000 A 
ATOM      3  N   UNL     1      16.444 -10.176  28.278  0.00  0.00    +0.000 NA
ATOM      4  C   UNL     1      17.468 -10.069  29.143  0.00  0.00    +0.000 A 
ATOM      5  C   UNL     1      17.571 -10.138  30.507  0.00  0.00    +0.000 A 
ATOM      6  C   UNL     1      18.762 -10.001  31.174  0.00  0.00    +0.000 A 
ATOM      7  C   UNL     1      19.895  -9.785  30.419  0.00  0.00    +0.000 A 
ATOM      8  C   UNL     1      19.772  -9.720  29.061  0.00  0.00    +0.000 A 
ATOM      9  C   UNL     1      18.608  -9.849  28.340  0.00  0.00    +0.000 A 
ENDROOT
BRANCH   2  10
ATOM     10  C   UNL     1      16.067 -10.090  25.700  0.00  0.00    +0.000 C 
ATOM     11  C   UNL     1      15.409  -8.595  25.886  0.00  0.00    +0.000 C 
ATOM     12  O   UNL     1      14.824 -10.790  26.262  0.00  0.00    +0.000 OA
ENDBRANCH   2  10
BRANCH   1  13
ATOM     13  C   UNL     1      19.011  -9.656  25.891  0.00  0.00    +0.000 C 
BRANCH  13  20
ATOM     14  C   UNL     1      18.859  -4.666  26.417  0.00  0.00    +0.000 C 
ATOM     15  C   UNL     1      19.519  -5.945  26.013  0.00  0.00    +0.000 A 
ATOM     16  C   UNL     1      20.820  -5.887  25.517  0.00  0.00    +0.000 A 
ATOM     17  C   UNL     1      21.524  -6.997  25.124  0.00  0.00    +0.000 A 
ATOM     18  C   UNL     1      20.888  -8.229  25.236  0.00  0.00    +0.000 A 
ATOM     19  C   UNL     1      21.708  -9.380  24.744  0.00  0.00    +0.000 C 
ATOM     20  C   UNL     1      19.622  -8.317  25.717  0.00  0.00    +0.000 A 
ATOM     21  C   UNL     1      18.911  -7.171  26.115  0.00  0.00    +0.000 A 
ENDBRANCH  13  20
ENDBRANCH   1  13
TORSDOF 3
ENDMDL
MODEL 8
REMARK VINA RESULT:      -6.1      3.820      7.820
REMARK  Name = 
REMARK  3 active torsions:
REMARK  status: ('A' for Active; 'I' for Inactive)
REMARK    1  A    between atoms: C_7  and  C_8
REMARK    2  A    between atoms: C_8  and  N_9
REMARK    3  A    between atoms: C_10  and  C_11
REMARK                            x       y       z     vdW  Elec       q    Type
REMARK                         _______ _______ _______ _____ _____    ______ ____
ROOT
ATOM      1  N   UNL     1      18.614   9.953  38.000  0.00  0.00    +0.000 N 
ATOM      2  C   UNL     1      17.435  10.539  37.611  0.00  0.00    +0.000 A 
ATOM      3  N   UNL     1      16.524  10.380  38.507  0.00  0.00    +0.000 NA
ATOM      4  C   UNL     1      17.030   9.685  39.541  0.00  0.00    +0.000 A 
ATOM      5  C   UNL     1      16.516   9.240  40.730  0.00  0.00    +0.000 A 
ATOM      6  C   UNL     1      17.251   8.524  41.641  0.00  0.00    +0.000 A 
ATOM      7  C   UNL     1      18.566   8.251  41.327  0.00  0.00    +0.000 A 
ATOM      8  C   UNL     1      19.060   8.704  40.137  0.00  0.00    +0.000 A 
ATOM      9  C   UNL     1      18.373   9.423  39.189  0.00  0.00    +0.000 A 
ENDROOT
BRANCH   2  10
ATOM     10  C   UNL     1      17.333  11.287  36.200  0.00  0.00    +0.000 C 
ATOM     11  C   UNL     1      17.030  12.762  36.860  0.00  0.00    +0.000 C 
ATOM     12  O   UNL     1      15.845  11.004  35.963  0.00  0.00    +0.000 OA
ENDBRANCH   2  10
BRANCH   1  13
ATOM     13  C   UNL     1      19.797   9.951  37.217  0.00  0.00    +0.000 C 
BRANCH  13  20
ATOM     14  C   UNL     1      21.135  14.234  39.466  0.00  0.00    +0.000 C 
ATOM     15  C   UNL     1      21.427  12.972  38.721  0.00  0.00    +0.000 A 
ATOM     16  C   UNL     1      22.757  12.658  38.451  0.00  0.00    +0.000 A 
ATOM     17  C   UNL     1      23.141  11.524  37.782  0.00  0.00    +0.000 A 
ATOM     18  C   UNL     1      22.135  10.659  37.362  0.00  0.00    +0.000 A 
ATOM     19  C   UNL     1      22.636   9.472  36.602  0.00  0.00    +0.000 C 
ATOM     20  C   UNL     1      20.830  10.937  37.613  0.00  0.00    +0.000 A 
ATOM     21  C   UNL     1      20.451  12.104  38.299  0.00  0.00    +0.000 A 
ENDBRANCH  13  20
ENDBRANCH   1  13
TORSDOF 3
ENDMDL
MODEL 9
REMARK VINA RESULT:      -6.1      3.459      6.738
REMARK  Name = 
REMARK  3 active torsions:
REMARK  status: ('A' for Active; 'I' for Inactive)
REMARK    1  A    between atoms: C_7  and  C_8
REMARK    2  A    between atoms: C_8  and  N_9
REMARK    3  A    between atoms: C_10  and  C_11
REMARK                            x       y       z     vdW  Elec       q    Type
REMARK                         _______ _______ _______ _____ _____    ______ ____
ROOT
ATOM      1  N   UNL     1      18.284  10.137  37.796  0.00  0.00    +0.000 N 
ATOM      2  C   UNL     1      17.732   9.638  38.949  0.00  0.00    +0.000 A 
ATOM      3  N   UNL     1      16.513  10.032  39.084  0.00  0.00    +0.000 NA
ATOM      4  C   UNL     1      16.177  10.811  38.041  0.00  0.00    +0.000 A 
ATOM      5  C   UNL     1      15.038  11.484  37.685  0.00  0.00    +0.000 A 
ATOM      6  C   UNL     1      14.942  12.239  36.543  0.00  0.00    +0.000 A 
ATOM      7  C   UNL     1      16.053  12.310  35.730  0.00  0.00    +0.000 A 
ATOM      8  C   UNL     1      17.179  11.632  36.101  0.00  0.00    +0.000 A 
ATOM      9  C   UNL     1      17.332  10.862  37.230  0.00  0.00    +0.000 A 
ENDROOT
BRANCH   2  10
ATOM     10  C   UNL     1      18.596   8.705  39.920  0.00  0.00    +0.000 C 
ATOM     11  C   UNL     1      17.292   8.140  40.747  0.00  0.00    +0.000 C 
ATOM     12  O   UNL     1      18.892   9.779  40.973  0.00  0.00    +0.000 OA
ENDBRANCH   2  10
BRANCH   1  13
ATOM     13  C   UNL     1      19.618   9.887  37.380  0.00  0.00    +0.000 C 
BRANCH  13  20
ATOM     14  C   UNL     1      20.814  14.197  39.657  0.00  0.00    +0.000 C 
ATOM     15  C   UNL     1      21.140  12.972  38.865  0.00  0.00    +0.000 A 
ATOM     16  C   UNL     1      22.470  12.750  38.514  0.00  0.00    +0.000 A 
ATOM     17  C   UNL     1      22.884  11.657  37.796  0.00  0.00    +0.000 A 
ATOM     18  C   UNL     1      21.911  10.738  37.412  0.00  0.00    +0.000 A 
ATOM     19  C   UNL     1      22.441   9.602  36.596  0.00  0.00    +0.000 C 
ATOM     20  C   UNL     1      20.608  10.928  37.742  0.00  0.00    +0.000 A 
ATOM     21  C   UNL     1      20.198  12.054  38.477  0.00  0.00    +0.000 A 
ENDBRANCH  13  20
ENDBRANCH   1  13
TORSDOF 3
ENDMDL
MODEL 10
REMARK VINA RESULT:      -6.1     20.121     22.653
REMARK  Name = 
REMARK  3 active torsions:
REMARK  status: ('A' for Active; 'I' for Inactive)
REMARK    1  A    between atoms: C_7  and  C_8
REMARK    2  A    between atoms: C_8  and  N_9
REMARK    3  A    between atoms: C_10  and  C_11
REMARK                            x       y       z     vdW  Elec       q    Type
REMARK                         _______ _______ _______ _____ _____    ______ ____
ROOT
ATOM      1  N   UNL     1      17.467  -8.548  27.699  0.00  0.00    +0.000 N 
ATOM      2  C   UNL     1      16.535  -9.144  26.886  0.00  0.00    +0.000 A 
ATOM      3  N   UNL     1      16.247 -10.326  27.307  0.00  0.00    +0.000 NA
ATOM      4  C   UNL     1      16.959 -10.593  28.416  0.00  0.00    +0.000 A 
ATOM      5  C   UNL     1      17.048 -11.674  29.251  0.00  0.00    +0.000 A 
ATOM      6  C   UNL     1      17.878 -11.709  30.344  0.00  0.00    +0.000 A 
ATOM      7  C   UNL     1      18.650 -10.594  30.594  0.00  0.00    +0.000 A 
ATOM      8  C   UNL     1      18.547  -9.526  29.750  0.00  0.00    +0.000 A 
ATOM      9  C   UNL     1      17.735  -9.435  28.644  0.00  0.00    +0.000 A 
ENDROOT
BRANCH   2  10
ATOM     10  C   UNL     1      15.964  -8.368  25.609  0.00  0.00    +0.000 C 
ATOM     11  C   UNL     1      14.555  -9.214  25.565  0.00  0.00    +0.000 C 
ATOM     12  O   UNL     1      16.623  -9.265  24.554  0.00  0.00    +0.000 OA
ENDBRANCH   2  10
BRANCH   1  13
ATOM     13  C   UNL     1      17.992  -7.247  27.485  0.00  0.00    +0.000 C 
BRANCH  13  20
ATOM     14  C   UNL     1      21.991  -9.479  25.431  0.00  0.00    +0.000 C 
ATOM     15  C   UNL     1      21.130  -8.293  25.724  0.00  0.00    +0.000 A 
ATOM     16  C   UNL     1      21.489  -7.065  25.171  0.00  0.00    +0.000 A 
ATOM     17  C   UNL     1      20.770  -5.914  25.368  0.00  0.00    +0.000 A 
ATOM     18  C   UNL     1      19.630  -6.001  26.161  0.00  0.00    +0.000 A 
ATOM     19  C   UNL     1      18.931  -4.693  26.360  0.00  0.00    +0.000 C 
ATOM     20  C   UNL     1      19.255  -7.184  26.711  0.00  0.00    +0.000 A 
ATOM     21  C   UNL     1      20.002  -8.355  26.503  0.00  0.00    +0.000 A 
ENDBRANCH  13  20
ENDBRANCH   1  13
TORSDOF 3
ENDMDL
