MODEL 1
REMARK VINA RESULT:      -7.8      0.000      0.000
REMARK  Name = 
REMARK  7 active torsions:
REMARK  status: ('A' for Active; 'I' for Inactive)
REMARK    1  A    between atoms: C_4  and  N_5
REMARK    2  A    between atoms: C_6  and  C_8
REMARK    3  A    between atoms: C_8  and  S_9
REMARK    4  A    between atoms: S_9  and  C_10
REMARK    5  A    between atoms: N_18  and  C_19
REMARK    6  A    between atoms: C_19  and  C_20
REMARK    7  A    between atoms: N_23  and  C_24
REMARK                            x       y       z     vdW  Elec       q    Type
REMARK                         _______ _______ _______ _____ _____    ______ ____
ROOT
ATOM      1  N   UNL     1      37.251  -0.539  17.296  0.00  0.00    +0.000 NA
ATOM      2  C   UNL     1      35.872  -0.504  17.005  0.00  0.00    +0.000 C 
ATOM      3  O   UNL     1      35.205  -1.550  17.095  0.00  0.00    +0.000 OA
ENDROOT
BRANCH   1   7
ATOM      4  C   UNL     1      39.019  -4.257  20.220  0.00  0.00    +0.000 C 
ATOM      5  C   UNL     1      38.681  -3.414  19.033  0.00  0.00    +0.000 A 
ATOM      6  C   UNL     1      37.952  -2.233  19.032  0.00  0.00    +0.000 A 
ATOM      7  C   UNL     1      37.880  -1.768  17.725  0.00  0.00    +0.000 A 
ATOM      8  N   UNL     1      38.533  -2.628  16.971  0.00  0.00    +0.000 N 
ATOM      9  N   UNL     1      39.018  -3.624  17.754  0.00  0.00    +0.000 NA
BRANCH   8  10
ATOM     10  C   UNL     1      38.747  -2.601  15.557  0.00  0.00    +0.000 A 
ATOM     11  C   UNL     1      39.987  -2.265  15.031  0.00  0.00    +0.000 A 
ATOM     12  C   UNL     1      40.150  -2.286  13.655  0.00  0.00    +0.000 A 
ATOM     13  C   UNL     1      39.090  -2.636  12.828  0.00  0.00    +0.000 A 
ATOM     14  C   UNL     1      37.875  -2.965  13.345  0.00  0.00    +0.000 A 
ATOM     15  C   UNL     1      37.724  -2.940  14.712  0.00  0.00    +0.000 A 
ENDBRANCH   8  10
ENDBRANCH   1   7
BRANCH   2  16
ATOM     16  C   UNL     1      35.146   0.761  16.591  0.00  0.00    +0.000 C 
BRANCH  16  17
ATOM     17  S   UNL     1      36.243   1.600  15.413  0.00  0.00    +0.000 S 
BRANCH  17  18
ATOM     18  C   UNL     1      37.213   2.908  16.092  0.00  0.00    +0.000 A 
ATOM     19  N   UNL     1      37.366   3.384  17.331  0.00  0.00    +0.000 NA
ATOM     20  C   UNL     1      38.330   4.328  17.388  0.00  0.00    +0.000 A 
ATOM     21  C   UNL     1      38.899   5.104  18.384  0.00  0.00    +0.000 A 
ATOM     22  C   UNL     1      39.929   5.973  18.049  0.00  0.00    +0.000 A 
ATOM     23  C   UNL     1      40.418   6.105  16.779  0.00  0.00    +0.000 A 
ATOM     24  C   UNL     1      39.848   5.330  15.774  0.00  0.00    +0.000 A 
ATOM     25  C   UNL     1      38.805   4.450  16.116  0.00  0.00    +0.000 A 
ATOM     26  N   UNL     1      38.124   3.589  15.346  0.00  0.00    +0.000 N 
BRANCH  26  27
ATOM     27  C   UNL     1      38.401   3.397  13.914  0.00  0.00    +0.000 C 
BRANCH  27  28
ATOM     28  C   UNL     1      39.691   2.672  13.852  0.00  0.00    +0.000 C 
ATOM     29  C   UNL     1      40.813   3.232  13.109  0.00  0.00    +0.000 C 
ATOM     30  C   UNL     1      39.755   1.320  14.402  0.00  0.00    +0.000 C 
ENDBRANCH  27  28
ENDBRANCH  26  27
ENDBRANCH  17  18
ENDBRANCH  16  17
ENDBRANCH   2  16
TORSDOF 7
ENDMDL
MODEL 2
REMARK VINA RESULT:      -7.5      2.014      7.856
REMARK  Name = 
REMARK  7 active torsions:
REMARK  status: ('A' for Active; 'I' for Inactive)
REMARK    1  A    between atoms: C_4  and  N_5
REMARK    2  A    between atoms: C_6  and  C_8
REMARK    3  A    between atoms: C_8  and  S_9
REMARK    4  A    between atoms: S_9  and  C_10
REMARK    5  A    between atoms: N_18  and  C_19
REMARK    6  A    between atoms: C_19  and  C_20
REMARK    7  A    between atoms: N_23  and  C_24
REMARK                            x       y       z     vdW  Elec       q    Type
REMARK                         _______ _______ _______ _____ _____    ______ ____
ROOT
ATOM      1  N   UNL     1      38.124   3.486  16.663  0.00  0.00    +0.000 NA
ATOM      2  C   UNL     1      36.785   3.342  16.244  0.00  0.00    +0.000 C 
ATOM      3  O   UNL     1      36.391   3.967  15.242  0.00  0.00    +0.000 OA
ENDROOT
BRANCH   1   7
ATOM      4  C   UNL     1      41.205   5.198  13.047  0.00  0.00    +0.000 C 
ATOM      5  C   UNL     1      40.424   5.076  14.316  0.00  0.00    +0.000 A 
ATOM      6  C   UNL     1      39.538   4.062  14.652  0.00  0.00    +0.000 A 
ATOM      7  C   UNL     1      39.039   4.325  15.921  0.00  0.00    +0.000 A 
ATOM      8  N   UNL     1      39.596   5.446  16.333  0.00  0.00    +0.000 N 
ATOM      9  N   UNL     1      40.432   5.905  15.368  0.00  0.00    +0.000 NA
BRANCH   8  10
ATOM     10  C   UNL     1      39.411   6.138  17.570  0.00  0.00    +0.000 A 
ATOM     11  C   UNL     1      38.367   7.039  17.733  0.00  0.00    +0.000 A 
ATOM     12  C   UNL     1      38.214   7.658  18.964  0.00  0.00    +0.000 A 
ATOM     13  C   UNL     1      39.089   7.377  20.005  0.00  0.00    +0.000 A 
ATOM     14  C   UNL     1      40.111   6.493  19.844  0.00  0.00    +0.000 A 
ATOM     15  C   UNL     1      40.256   5.885  18.618  0.00  0.00    +0.000 A 
ENDBRANCH   8  10
ENDBRANCH   1   7
BRANCH   2  16
ATOM     16  C   UNL     1      35.788   2.447  16.953  0.00  0.00    +0.000 C 
BRANCH  16  17
ATOM     17  S   UNL     1      35.577   0.996  15.884  0.00  0.00    +0.000 S 
BRANCH  17  18
ATOM     18  C   UNL     1      37.068   0.150  15.464  0.00  0.00    +0.000 A 
ATOM     19  N   UNL     1      38.143   0.494  14.750  0.00  0.00    +0.000 NA
ATOM     20  C   UNL     1      39.106  -0.452  14.812  0.00  0.00    +0.000 A 
ATOM     21  C   UNL     1      40.387  -0.596  14.303  0.00  0.00    +0.000 A 
ATOM     22  C   UNL     1      41.109  -1.738  14.622  0.00  0.00    +0.000 A 
ATOM     23  C   UNL     1      40.622  -2.737  15.420  0.00  0.00    +0.000 A 
ATOM     24  C   UNL     1      39.335  -2.599  15.931  0.00  0.00    +0.000 A 
ATOM     25  C   UNL     1      38.606  -1.440  15.606  0.00  0.00    +0.000 A 
ATOM     26  N   UNL     1      37.377  -1.064  15.993  0.00  0.00    +0.000 N 
BRANCH  26  27
ATOM     27  C   UNL     1      36.546  -1.858  16.910  0.00  0.00    +0.000 C 
BRANCH  27  28
ATOM     28  C   UNL     1      36.974  -1.468  18.273  0.00  0.00    +0.000 C 
ATOM     29  C   UNL     1      38.041  -2.199  18.944  0.00  0.00    +0.000 C 
ATOM     30  C   UNL     1      36.193  -0.459  18.985  0.00  0.00    +0.000 C 
ENDBRANCH  27  28
ENDBRANCH  26  27
ENDBRANCH  17  18
ENDBRANCH  16  17
ENDBRANCH   2  16
TORSDOF 7
ENDMDL
MODEL 3
REMARK VINA RESULT:      -7.2      2.280      3.072
REMARK  Name = 
REMARK  7 active torsions:
REMARK  status: ('A' for Active; 'I' for Inactive)
REMARK    1  A    between atoms: C_4  and  N_5
REMARK    2  A    between atoms: C_6  and  C_8
REMARK    3  A    between atoms: C_8  and  S_9
REMARK    4  A    between atoms: S_9  and  C_10
REMARK    5  A    between atoms: N_18  and  C_19
REMARK    6  A    between atoms: C_19  and  C_20
REMARK    7  A    between atoms: N_23  and  C_24
REMARK                            x       y       z     vdW  Elec       q    Type
REMARK                         _______ _______ _______ _____ _____    ______ ____
ROOT
ATOM      1  N   UNL     1      37.189  -0.514  17.342  0.00  0.00    +0.000 NA
ATOM      2  C   UNL     1      35.841  -0.531  16.927  0.00  0.00    +0.000 C 
ATOM      3  O   UNL     1      35.242  -1.620  16.852  0.00  0.00    +0.000 OA
ENDROOT
BRANCH   1   7
ATOM      4  C   UNL     1      39.016  -4.359  20.058  0.00  0.00    +0.000 C 
ATOM      5  C   UNL     1      38.687  -3.443  18.923  0.00  0.00    +0.000 A 
ATOM      6  C   UNL     1      37.899  -2.303  18.976  0.00  0.00    +0.000 A 
ATOM      7  C   UNL     1      37.861  -1.741  17.706  0.00  0.00    +0.000 A 
ATOM      8  N   UNL     1      38.591  -2.508  16.921  0.00  0.00    +0.000 N 
ATOM      9  N   UNL     1      39.092  -3.537  17.649  0.00  0.00    +0.000 NA
BRANCH   8  10
ATOM     10  C   UNL     1      38.866  -2.359  15.526  0.00  0.00    +0.000 A 
ATOM     11  C   UNL     1      38.124  -3.050  14.577  0.00  0.00    +0.000 A 
ATOM     12  C   UNL     1      38.411  -2.845  13.236  0.00  0.00    +0.000 A 
ATOM     13  C   UNL     1      39.417  -1.965  12.860  0.00  0.00    +0.000 A 
ATOM     14  C   UNL     1      40.142  -1.287  13.791  0.00  0.00    +0.000 A 
ATOM     15  C   UNL     1      39.851  -1.500  15.119  0.00  0.00    +0.000 A 
ENDBRANCH   8  10
ENDBRANCH   1   7
BRANCH   2  16
ATOM     16  C   UNL     1      35.069   0.723  16.572  0.00  0.00    +0.000 C 
BRANCH  16  17
ATOM     17  S   UNL     1      36.303   2.049  16.456  0.00  0.00    +0.000 S 
BRANCH  17  18
ATOM     18  C   UNL     1      36.059   3.187  15.129  0.00  0.00    +0.000 A 
ATOM     19  N   UNL     1      35.201   4.192  14.933  0.00  0.00    +0.000 NA
ATOM     20  C   UNL     1      35.482   4.874  13.801  0.00  0.00    +0.000 A 
ATOM     21  C   UNL     1      34.955   5.980  13.154  0.00  0.00    +0.000 A 
ATOM     22  C   UNL     1      35.557   6.420  11.983  0.00  0.00    +0.000 A 
ATOM     23  C   UNL     1      36.653   5.819  11.429  0.00  0.00    +0.000 A 
ATOM     24  C   UNL     1      37.185   4.706  12.073  0.00  0.00    +0.000 A 
ATOM     25  C   UNL     1      36.573   4.262  13.259  0.00  0.00    +0.000 A 
ATOM     26  N   UNL     1      36.911   3.247  14.070  0.00  0.00    +0.000 N 
BRANCH  26  27
ATOM     27  C   UNL     1      38.082   2.388  13.838  0.00  0.00    +0.000 C 
BRANCH  27  28
ATOM     28  C   UNL     1      37.651   1.392  12.830  0.00  0.00    +0.000 C 
ATOM     29  C   UNL     1      36.625   0.411  13.160  0.00  0.00    +0.000 C 
ATOM     30  C   UNL     1      38.393   1.309  11.574  0.00  0.00    +0.000 C 
ENDBRANCH  27  28
ENDBRANCH  26  27
ENDBRANCH  17  18
ENDBRANCH  16  17
ENDBRANCH   2  16
TORSDOF 7
ENDMDL
MODEL 4
REMARK VINA RESULT:      -7.2      1.893      3.162
REMARK  Name = 
REMARK  7 active torsions:
REMARK  status: ('A' for Active; 'I' for Inactive)
REMARK    1  A    between atoms: C_4  and  N_5
REMARK    2  A    between atoms: C_6  and  C_8
REMARK    3  A    between atoms: C_8  and  S_9
REMARK    4  A    between atoms: S_9  and  C_10
REMARK    5  A    between atoms: N_18  and  C_19
REMARK    6  A    between atoms: C_19  and  C_20
REMARK    7  A    between atoms: N_23  and  C_24
REMARK                            x       y       z     vdW  Elec       q    Type
REMARK                         _______ _______ _______ _____ _____    ______ ____
ROOT
ATOM      1  N   UNL     1      37.038  -0.495  15.737  0.00  0.00    +0.000 NA
ATOM      2  C   UNL     1      36.669  -0.319  17.087  0.00  0.00    +0.000 C 
ATOM      3  O   UNL     1      37.361  -0.842  17.979  0.00  0.00    +0.000 OA
ENDROOT
BRANCH   1   7
ATOM      4  C   UNL     1      41.774  -1.653  14.422  0.00  0.00    +0.000 C 
ATOM      5  C   UNL     1      40.328  -1.759  14.789  0.00  0.00    +0.000 A 
ATOM      6  C   UNL     1      39.480  -0.718  15.137  0.00  0.00    +0.000 A 
ATOM      7  C   UNL     1      38.222  -1.249  15.391  0.00  0.00    +0.000 A 
ATOM      8  N   UNL     1      38.306  -2.551  15.206  0.00  0.00    +0.000 N 
ATOM      9  N   UNL     1      39.575  -2.865  14.843  0.00  0.00    +0.000 NA
BRANCH   8  10
ATOM     10  C   UNL     1      37.286  -3.544  15.341  0.00  0.00    +0.000 A 
ATOM     11  C   UNL     1      37.342  -4.487  16.358  0.00  0.00    +0.000 A 
ATOM     12  C   UNL     1      36.310  -5.407  16.464  0.00  0.00    +0.000 A 
ATOM     13  C   UNL     1      35.248  -5.377  15.570  0.00  0.00    +0.000 A 
ATOM     14  C   UNL     1      35.194  -4.451  14.574  0.00  0.00    +0.000 A 
ATOM     15  C   UNL     1      36.224  -3.544  14.476  0.00  0.00    +0.000 A 
ENDBRANCH   8  10
ENDBRANCH   1   7
BRANCH   2  16
ATOM     16  C   UNL     1      35.465   0.494  17.516  0.00  0.00    +0.000 C 
BRANCH  16  17
ATOM     17  S   UNL     1      35.372   1.892  16.362  0.00  0.00    +0.000 S 
BRANCH  17  18
ATOM     18  C   UNL     1      36.654   3.093  16.534  0.00  0.00    +0.000 A 
ATOM     19  N   UNL     1      37.289   3.607  17.591  0.00  0.00    +0.000 NA
ATOM     20  C   UNL     1      38.304   4.416  17.218  0.00  0.00    +0.000 A 
ATOM     21  C   UNL     1      39.270   5.160  17.875  0.00  0.00    +0.000 A 
ATOM     22  C   UNL     1      40.199   5.866  17.122  0.00  0.00    +0.000 A 
ATOM     23  C   UNL     1      40.213   5.866  15.755  0.00  0.00    +0.000 A 
ATOM     24  C   UNL     1      39.243   5.123  15.089  0.00  0.00    +0.000 A 
ATOM     25  C   UNL     1      38.304   4.409  15.855  0.00  0.00    +0.000 A 
ATOM     26  N   UNL     1      37.305   3.607  15.456  0.00  0.00    +0.000 N 
BRANCH  26  27
ATOM     27  C   UNL     1      37.031   3.307  14.042  0.00  0.00    +0.000 C 
BRANCH  27  28
ATOM     28  C   UNL     1      36.325   4.496  13.513  0.00  0.00    +0.000 C 
ATOM     29  C   UNL     1      35.120   4.987  14.170  0.00  0.00    +0.000 C 
ATOM     30  C   UNL     1      36.761   5.051  12.233  0.00  0.00    +0.000 C 
ENDBRANCH  27  28
ENDBRANCH  26  27
ENDBRANCH  17  18
ENDBRANCH  16  17
ENDBRANCH   2  16
TORSDOF 7
ENDMDL
MODEL 5
REMARK VINA RESULT:      -7.1      2.946      4.868
REMARK  Name = 
REMARK  7 active torsions:
REMARK  status: ('A' for Active; 'I' for Inactive)
REMARK    1  A    between atoms: C_4  and  N_5
REMARK    2  A    between atoms: C_6  and  C_8
REMARK    3  A    between atoms: C_8  and  S_9
REMARK    4  A    between atoms: S_9  and  C_10
REMARK    5  A    between atoms: N_18  and  C_19
REMARK    6  A    between atoms: C_19  and  C_20
REMARK    7  A    between atoms: N_23  and  C_24
REMARK                            x       y       z     vdW  Elec       q    Type
REMARK                         _______ _______ _______ _____ _____    ______ ____
ROOT
ATOM      1  N   UNL     1      37.973  -3.168  15.128  0.00  0.00    +0.000 NA
ATOM      2  C   UNL     1      38.456  -2.444  14.018  0.00  0.00    +0.000 C 
ATOM      3  O   UNL     1      37.655  -2.060  13.147  0.00  0.00    +0.000 OA
ENDROOT
BRANCH   1   7
ATOM      4  C   UNL     1      33.283  -4.800  14.210  0.00  0.00    +0.000 C 
ATOM      5  C   UNL     1      34.468  -4.151  14.849  0.00  0.00    +0.000 A 
ATOM      6  C   UNL     1      35.777  -4.171  14.388  0.00  0.00    +0.000 A 
ATOM      7  C   UNL     1      36.559  -3.436  15.270  0.00  0.00    +0.000 A 
ATOM      8  N   UNL     1      35.761  -2.994  16.221  0.00  0.00    +0.000 N 
ATOM      9  N   UNL     1      34.498  -3.423  15.973  0.00  0.00    +0.000 NA
BRANCH   8  10
ATOM     10  C   UNL     1      36.082  -2.193  17.361  0.00  0.00    +0.000 A 
ATOM     11  C   UNL     1      35.197  -1.228  17.824  0.00  0.00    +0.000 A 
ATOM     12  C   UNL     1      35.543  -0.501  18.952  0.00  0.00    +0.000 A 
ATOM     13  C   UNL     1      36.748  -0.740  19.599  0.00  0.00    +0.000 A 
ATOM     14  C   UNL     1      37.614  -1.687  19.145  0.00  0.00    +0.000 A 
ATOM     15  C   UNL     1      37.262  -2.401  18.023  0.00  0.00    +0.000 A 
ENDBRANCH   8  10
ENDBRANCH   1   7
BRANCH   2  16
ATOM     16  C   UNL     1      39.919  -2.095  13.832  0.00  0.00    +0.000 C 
BRANCH  16  17
ATOM     17  S   UNL     1      40.118  -0.418  14.498  0.00  0.00    +0.000 S 
BRANCH  17  18
ATOM     18  C   UNL     1      38.614   0.470  14.754  0.00  0.00    +0.000 A 
ATOM     19  N   UNL     1      37.728   0.497  15.754  0.00  0.00    +0.000 NA
ATOM     20  C   UNL     1      36.783   1.443  15.558  0.00  0.00    +0.000 A 
ATOM     21  C   UNL     1      35.684   1.905  16.262  0.00  0.00    +0.000 A 
ATOM     22  C   UNL     1      34.945   2.955  15.735  0.00  0.00    +0.000 A 
ATOM     23  C   UNL     1      35.246   3.566  14.549  0.00  0.00    +0.000 A 
ATOM     24  C   UNL     1      36.348   3.103  13.836  0.00  0.00    +0.000 A 
ATOM     25  C   UNL     1      37.096   2.040  14.373  0.00  0.00    +0.000 A 
ATOM     26  N   UNL     1      38.201   1.444  13.900  0.00  0.00    +0.000 N 
BRANCH  26  27
ATOM     27  C   UNL     1      38.871   1.862  12.659  0.00  0.00    +0.000 C 
BRANCH  27  28
ATOM     28  C   UNL     1      38.430   0.899  11.625  0.00  0.00    +0.000 C 
ATOM     29  C   UNL     1      39.414   0.132  10.870  0.00  0.00    +0.000 C 
ATOM     30  C   UNL     1      37.014   0.863  11.265  0.00  0.00    +0.000 C 
ENDBRANCH  27  28
ENDBRANCH  26  27
ENDBRANCH  17  18
ENDBRANCH  16  17
ENDBRANCH   2  16
TORSDOF 7
ENDMDL
MODEL 6
REMARK VINA RESULT:      -7.0      1.781      3.130
REMARK  Name = 
REMARK  7 active torsions:
REMARK  status: ('A' for Active; 'I' for Inactive)
REMARK    1  A    between atoms: C_4  and  N_5
REMARK    2  A    between atoms: C_6  and  C_8
REMARK    3  A    between atoms: C_8  and  S_9
REMARK    4  A    between atoms: S_9  and  C_10
REMARK    5  A    between atoms: N_18  and  C_19
REMARK    6  A    between atoms: C_19  and  C_20
REMARK    7  A    between atoms: N_23  and  C_24
REMARK                            x       y       z     vdW  Elec       q    Type
REMARK                         _______ _______ _______ _____ _____    ______ ____
ROOT
ATOM      1  N   UNL     1      38.128  -0.008  15.644  0.00  0.00    +0.000 NA
ATOM      2  C   UNL     1      36.971   0.208  14.868  0.00  0.00    +0.000 C 
ATOM      3  O   UNL     1      36.946  -0.190  13.690  0.00  0.00    +0.000 OA
ENDROOT
BRANCH   1   7
ATOM      4  C   UNL     1      42.478  -0.978  13.271  0.00  0.00    +0.000 C 
ATOM      5  C   UNL     1      41.193  -1.140  14.018  0.00  0.00    +0.000 A 
ATOM      6  C   UNL     1      40.350  -0.127  14.451  0.00  0.00    +0.000 A 
ATOM      7  C   UNL     1      39.263  -0.711  15.090  0.00  0.00    +0.000 A 
ATOM      8  N   UNL     1      39.442  -2.015  15.047  0.00  0.00    +0.000 N 
ATOM      9  N   UNL     1      40.605  -2.281  14.401  0.00  0.00    +0.000 NA
BRANCH   8  10
ATOM     10  C   UNL     1      38.607  -3.053  15.566  0.00  0.00    +0.000 A 
ATOM     11  C   UNL     1      37.480  -3.473  14.872  0.00  0.00    +0.000 A 
ATOM     12  C   UNL     1      36.722  -4.505  15.403  0.00  0.00    +0.000 A 
ATOM     13  C   UNL     1      37.091  -5.102  16.602  0.00  0.00    +0.000 A 
ATOM     14  C   UNL     1      38.197  -4.690  17.281  0.00  0.00    +0.000 A 
ATOM     15  C   UNL     1      38.940  -3.663  16.746  0.00  0.00    +0.000 A 
ENDBRANCH   8  10
ENDBRANCH   1   7
BRANCH   2  16
ATOM     16  C   UNL     1      35.733   0.901  15.403  0.00  0.00    +0.000 C 
BRANCH  16  17
ATOM     17  S   UNL     1      35.861   2.630  14.865  0.00  0.00    +0.000 S 
BRANCH  17  18
ATOM     18  C   UNL     1      36.967   3.630  15.809  0.00  0.00    +0.000 A 
ATOM     19  N   UNL     1      37.263   3.685  17.111  0.00  0.00    +0.000 NA
ATOM     20  C   UNL     1      38.283   4.537  17.355  0.00  0.00    +0.000 A 
ATOM     21  C   UNL     1      38.989   4.943  18.475  0.00  0.00    +0.000 A 
ATOM     22  C   UNL     1      40.032   5.846  18.319  0.00  0.00    +0.000 A 
ATOM     23  C   UNL     1      40.406   6.360  17.109  0.00  0.00    +0.000 A 
ATOM     24  C   UNL     1      39.698   5.958  15.979  0.00  0.00    +0.000 A 
ATOM     25  C   UNL     1      38.643   5.043  16.141  0.00  0.00    +0.000 A 
ATOM     26  N   UNL     1      37.841   4.488  15.218  0.00  0.00    +0.000 N 
BRANCH  26  27
ATOM     27  C   UNL     1      37.971   4.752  13.778  0.00  0.00    +0.000 C 
BRANCH  27  28
ATOM     28  C   UNL     1      38.745   3.614  13.232  0.00  0.00    +0.000 C 
ATOM     29  C   UNL     1      40.102   3.358  13.698  0.00  0.00    +0.000 C 
ATOM     30  C   UNL     1      38.185   2.869  12.106  0.00  0.00    +0.000 C 
ENDBRANCH  27  28
ENDBRANCH  26  27
ENDBRANCH  17  18
ENDBRANCH  16  17
ENDBRANCH   2  16
TORSDOF 7
ENDMDL
MODEL 7
REMARK VINA RESULT:      -6.9      2.800      4.747
REMARK  Name = 
REMARK  7 active torsions:
REMARK  status: ('A' for Active; 'I' for Inactive)
REMARK    1  A    between atoms: C_4  and  N_5
REMARK    2  A    between atoms: C_6  and  C_8
REMARK    3  A    between atoms: C_8  and  S_9
REMARK    4  A    between atoms: S_9  and  C_10
REMARK    5  A    between atoms: N_18  and  C_19
REMARK    6  A    between atoms: C_19  and  C_20
REMARK    7  A    between atoms: N_23  and  C_24
REMARK                            x       y       z     vdW  Elec       q    Type
REMARK                         _______ _______ _______ _____ _____    ______ ____
ROOT
ATOM      1  N   UNL     1      36.926   2.252  14.935  0.00  0.00    +0.000 NA
ATOM      2  C   UNL     1      37.326   3.329  15.754  0.00  0.00    +0.000 C 
ATOM      3  O   UNL     1      37.358   3.174  16.988  0.00  0.00    +0.000 OA
ENDROOT
BRANCH   1   7
ATOM      4  C   UNL     1      34.426  -1.399  17.368  0.00  0.00    +0.000 C 
ATOM      5  C   UNL     1      35.476  -0.645  16.617  0.00  0.00    +0.000 A 
ATOM      6  C   UNL     1      35.389   0.658  16.149  0.00  0.00    +0.000 A 
ATOM      7  C   UNL     1      36.586   0.974  15.518  0.00  0.00    +0.000 A 
ATOM      8  N   UNL     1      37.360  -0.090  15.600  0.00  0.00    +0.000 N 
ATOM      9  N   UNL     1      36.695  -1.070  16.261  0.00  0.00    +0.000 NA
BRANCH   8  10
ATOM     10  C   UNL     1      38.689  -0.273  15.105  0.00  0.00    +0.000 A 
ATOM     11  C   UNL     1      39.385   0.782  14.530  0.00  0.00    +0.000 A 
ATOM     12  C   UNL     1      40.683   0.558  14.096  0.00  0.00    +0.000 A 
ATOM     13  C   UNL     1      41.265  -0.694  14.239  0.00  0.00    +0.000 A 
ATOM     14  C   UNL     1      40.582  -1.726  14.804  0.00  0.00    +0.000 A 
ATOM     15  C   UNL     1      39.294  -1.495  15.229  0.00  0.00    +0.000 A 
ENDBRANCH   8  10
ENDBRANCH   1   7
BRANCH   2  16
ATOM     16  C   UNL     1      37.734   4.680  15.203  0.00  0.00    +0.000 C 
BRANCH  16  17
ATOM     17  S   UNL     1      39.123   5.236  16.230  0.00  0.00    +0.000 S 
BRANCH  17  18
ATOM     18  C   UNL     1      38.794   6.646  17.239  0.00  0.00    +0.000 A 
ATOM     19  N   UNL     1      38.032   7.730  17.073  0.00  0.00    +0.000 NA
ATOM     20  C   UNL     1      37.993   8.489  18.191  0.00  0.00    +0.000 A 
ATOM     21  C   UNL     1      37.360   9.661  18.570  0.00  0.00    +0.000 A 
ATOM     22  C   UNL     1      37.544  10.132  19.863  0.00  0.00    +0.000 A 
ATOM     23  C   UNL     1      38.322   9.496  20.791  0.00  0.00    +0.000 A 
ATOM     24  C   UNL     1      38.962   8.320  20.414  0.00  0.00    +0.000 A 
ATOM     25  C   UNL     1      38.773   7.844  19.104  0.00  0.00    +0.000 A 
ATOM     26  N   UNL     1      39.249   6.735  18.517  0.00  0.00    +0.000 N 
BRANCH  26  27
ATOM     27  C   UNL     1      40.090   5.753  19.219  0.00  0.00    +0.000 C 
BRANCH  27  28
ATOM     28  C   UNL     1      41.451   6.337  19.239  0.00  0.00    +0.000 C 
ATOM     29  C   UNL     1      42.145   6.625  17.991  0.00  0.00    +0.000 C 
ATOM     30  C   UNL     1      42.138   6.454  20.524  0.00  0.00    +0.000 C 
ENDBRANCH  27  28
ENDBRANCH  26  27
ENDBRANCH  17  18
ENDBRANCH  16  17
ENDBRANCH   2  16
TORSDOF 7
ENDMDL
MODEL 8
REMARK VINA RESULT:      -6.8      2.014      8.112
REMARK  Name = 
REMARK  7 active torsions:
REMARK  status: ('A' for Active; 'I' for Inactive)
REMARK    1  A    between atoms: C_4  and  N_5
REMARK    2  A    between atoms: C_6  and  C_8
REMARK    3  A    between atoms: C_8  and  S_9
REMARK    4  A    between atoms: S_9  and  C_10
REMARK    5  A    between atoms: N_18  and  C_19
REMARK    6  A    between atoms: C_19  and  C_20
REMARK    7  A    between atoms: N_23  and  C_24
REMARK                            x       y       z     vdW  Elec       q    Type
REMARK                         _______ _______ _______ _____ _____    ______ ____
ROOT
ATOM      1  N   UNL     1      37.463   4.971  15.584  0.00  0.00    +0.000 NA
ATOM      2  C   UNL     1      37.492   3.606  15.937  0.00  0.00    +0.000 C 
ATOM      3  O   UNL     1      38.563   2.979  15.851  0.00  0.00    +0.000 OA
ENDROOT
BRANCH   1   7
ATOM      4  C   UNL     1      41.298   6.585  12.723  0.00  0.00    +0.000 C 
ATOM      5  C   UNL     1      40.384   6.347  13.882  0.00  0.00    +0.000 A 
ATOM      6  C   UNL     1      39.196   5.631  13.870  0.00  0.00    +0.000 A 
ATOM      7  C   UNL     1      38.668   5.644  15.155  0.00  0.00    +0.000 A 
ATOM      8  N   UNL     1      39.498   6.338  15.908  0.00  0.00    +0.000 N 
ATOM      9  N   UNL     1      40.535   6.765  15.146  0.00  0.00    +0.000 NA
BRANCH   8  10
ATOM     10  C   UNL     1      39.404   6.641  17.302  0.00  0.00    +0.000 A 
ATOM     11  C   UNL     1      38.494   7.581  17.767  0.00  0.00    +0.000 A 
ATOM     12  C   UNL     1      38.422   7.814  19.131  0.00  0.00    +0.000 A 
ATOM     13  C   UNL     1      39.243   7.117  20.007  0.00  0.00    +0.000 A 
ATOM     14  C   UNL     1      40.134   6.194  19.551  0.00  0.00    +0.000 A 
ATOM     15  C   UNL     1      40.200   5.973  18.194  0.00  0.00    +0.000 A 
ENDBRANCH   8  10
ENDBRANCH   1   7
BRANCH   2  16
ATOM     16  C   UNL     1      36.273   2.854  16.433  0.00  0.00    +0.000 C 
BRANCH  16  17
ATOM     17  S   UNL     1      36.393   1.190  15.718  0.00  0.00    +0.000 S 
BRANCH  17  18
ATOM     18  C   UNL     1      37.028  -0.049  16.804  0.00  0.00    +0.000 A 
ATOM     19  N   UNL     1      36.927  -0.248  18.121  0.00  0.00    +0.000 NA
ATOM     20  C   UNL     1      37.484  -1.422  18.492  0.00  0.00    +0.000 A 
ATOM     21  C   UNL     1      37.632  -2.116  19.681  0.00  0.00    +0.000 A 
ATOM     22  C   UNL     1      38.257  -3.355  19.660  0.00  0.00    +0.000 A 
ATOM     23  C   UNL     1      38.737  -3.936  18.518  0.00  0.00    +0.000 A 
ATOM     24  C   UNL     1      38.594  -3.242  17.321  0.00  0.00    +0.000 A 
ATOM     25  C   UNL     1      37.960  -1.986  17.345  0.00  0.00    +0.000 A 
ATOM     26  N   UNL     1      37.678  -1.148  16.336  0.00  0.00    +0.000 N 
BRANCH  26  27
ATOM     27  C   UNL     1      37.991  -1.449  14.931  0.00  0.00    +0.000 C 
BRANCH  27  28
ATOM     28  C   UNL     1      39.431  -1.147  14.770  0.00  0.00    +0.000 C 
ATOM     29  C   UNL     1      39.877   0.230  14.596  0.00  0.00    +0.000 C 
ATOM     30  C   UNL     1      40.364  -2.262  14.620  0.00  0.00    +0.000 C 
ENDBRANCH  27  28
ENDBRANCH  26  27
ENDBRANCH  17  18
ENDBRANCH  16  17
ENDBRANCH   2  16
TORSDOF 7
ENDMDL
MODEL 9
REMARK VINA RESULT:      -6.8      1.946      3.526
REMARK  Name = 
REMARK  7 active torsions:
REMARK  status: ('A' for Active; 'I' for Inactive)
REMARK    1  A    between atoms: C_4  and  N_5
REMARK    2  A    between atoms: C_6  and  C_8
REMARK    3  A    between atoms: C_8  and  S_9
REMARK    4  A    between atoms: S_9  and  C_10
REMARK    5  A    between atoms: N_18  and  C_19
REMARK    6  A    between atoms: C_19  and  C_20
REMARK    7  A    between atoms: N_23  and  C_24
REMARK                            x       y       z     vdW  Elec       q    Type
REMARK                         _______ _______ _______ _____ _____    ______ ____
ROOT
ATOM      1  N   UNL     1      36.217  -1.061  16.916  0.00  0.00    +0.000 NA
ATOM      2  C   UNL     1      36.059   0.211  17.506  0.00  0.00    +0.000 C 
ATOM      3  O   UNL     1      36.824   0.554  18.426  0.00  0.00    +0.000 OA
ENDROOT
BRANCH   1   7
ATOM      4  C   UNL     1      39.051  -4.102  19.783  0.00  0.00    +0.000 C 
ATOM      5  C   UNL     1      38.542  -3.286  18.638  0.00  0.00    +0.000 A 
ATOM      6  C   UNL     1      37.356  -2.569  18.591  0.00  0.00    +0.000 A 
ATOM      7  C   UNL     1      37.274  -1.945  17.352  0.00  0.00    +0.000 A 
ATOM      8  N   UNL     1      38.360  -2.272  16.681  0.00  0.00    +0.000 N 
ATOM      9  N   UNL     1      39.129  -3.082  17.452  0.00  0.00    +0.000 NA
BRANCH   8  10
ATOM     10  C   UNL     1      38.748  -1.887  15.360  0.00  0.00    +0.000 A 
ATOM     11  C   UNL     1      39.425  -0.696  15.136  0.00  0.00    +0.000 A 
ATOM     12  C   UNL     1      39.807  -0.387  13.840  0.00  0.00    +0.000 A 
ATOM     13  C   UNL     1      39.517  -1.255  12.796  0.00  0.00    +0.000 A 
ATOM     14  C   UNL     1      38.854  -2.423  13.017  0.00  0.00    +0.000 A 
ATOM     15  C   UNL     1      38.477  -2.720  14.307  0.00  0.00    +0.000 A 
ENDBRANCH   8  10
ENDBRANCH   1   7
BRANCH   2  16
ATOM     16  C   UNL     1      34.999   1.200  17.066  0.00  0.00    +0.000 C 
BRANCH  16  17
ATOM     17  S   UNL     1      35.890   2.554  16.251  0.00  0.00    +0.000 S 
BRANCH  17  18
ATOM     18  C   UNL     1      36.471   2.197  14.623  0.00  0.00    +0.000 A 
ATOM     19  N   UNL     1      36.323   1.147  13.810  0.00  0.00    +0.000 NA
ATOM     20  C   UNL     1      36.851   1.383  12.589  0.00  0.00    +0.000 A 
ATOM     21  C   UNL     1      36.949   0.680  11.400  0.00  0.00    +0.000 A 
ATOM     22  C   UNL     1      37.557   1.289  10.310  0.00  0.00    +0.000 A 
ATOM     23  C   UNL     1      38.066   2.558  10.346  0.00  0.00    +0.000 A 
ATOM     24  C   UNL     1      37.973   3.268  11.539  0.00  0.00    +0.000 A 
ATOM     25  C   UNL     1      37.356   2.648  12.641  0.00  0.00    +0.000 A 
ATOM     26  N   UNL     1      37.120   3.127  13.872  0.00  0.00    +0.000 N 
BRANCH  26  27
ATOM     27  C   UNL     1      37.476   4.493  14.285  0.00  0.00    +0.000 C 
BRANCH  27  28
ATOM     28  C   UNL     1      38.781   4.374  14.975  0.00  0.00    +0.000 C 
ATOM     29  C   UNL     1      39.965   3.952  14.237  0.00  0.00    +0.000 C 
ATOM     30  C   UNL     1      38.814   4.519  16.428  0.00  0.00    +0.000 C 
ENDBRANCH  27  28
ENDBRANCH  26  27
ENDBRANCH  17  18
ENDBRANCH  16  17
ENDBRANCH   2  16
TORSDOF 7
ENDMDL
MODEL 10
REMARK VINA RESULT:      -6.8      2.643      4.906
REMARK  Name = 
REMARK  7 active torsions:
REMARK  status: ('A' for Active; 'I' for Inactive)
REMARK    1  A    between atoms: C_4  and  N_5
REMARK    2  A    between atoms: C_6  and  C_8
REMARK    3  A    between atoms: C_8  and  S_9
REMARK    4  A    between atoms: S_9  and  C_10
REMARK    5  A    between atoms: N_18  and  C_19
REMARK    6  A    between atoms: C_19  and  C_20
REMARK    7  A    between atoms: N_23  and  C_24
REMARK                            x       y       z     vdW  Elec       q    Type
REMARK                         _______ _______ _______ _____ _____    ______ ____
ROOT
ATOM      1  N   UNL     1      38.846   1.644  15.084  0.00  0.00    +0.000 NA
ATOM      2  C   UNL     1      38.036   2.355  14.174  0.00  0.00    +0.000 C 
ATOM      3  O   UNL     1      37.565   1.761  13.187  0.00  0.00    +0.000 OA
ENDROOT
BRANCH   1   7
ATOM      4  C   UNL     1      40.846  -2.685  13.422  0.00  0.00    +0.000 C 
ATOM      5  C   UNL     1      39.986  -1.692  14.136  0.00  0.00    +0.000 A 
ATOM      6  C   UNL     1      40.107  -0.310  14.100  0.00  0.00    +0.000 A 
ATOM      7  C   UNL     1      39.103   0.234  14.892  0.00  0.00    +0.000 A 
ATOM      8  N   UNL     1      38.409  -0.772  15.384  0.00  0.00    +0.000 N 
ATOM      9  N   UNL     1      38.937  -1.937  14.932  0.00  0.00    +0.000 NA
BRANCH   8  10
ATOM     10  C   UNL     1      37.275  -0.738  16.255  0.00  0.00    +0.000 A 
ATOM     11  C   UNL     1      36.050  -0.261  15.810  0.00  0.00    +0.000 A 
ATOM     12  C   UNL     1      34.975  -0.281  16.685  0.00  0.00    +0.000 A 
ATOM     13  C   UNL     1      35.130  -0.771  17.975  0.00  0.00    +0.000 A 
ATOM     14  C   UNL     1      36.331  -1.240  18.410  0.00  0.00    +0.000 A 
ATOM     15  C   UNL     1      37.392  -1.214  17.534  0.00  0.00    +0.000 A 
ENDBRANCH   8  10
ENDBRANCH   1   7
BRANCH   2  16
ATOM     16  C   UNL     1      37.695   3.822  14.341  0.00  0.00    +0.000 C 
BRANCH  16  17
ATOM     17  S   UNL     1      38.752   4.426  15.687  0.00  0.00    +0.000 S 
BRANCH  17  18
ATOM     18  C   UNL     1      38.318   6.012  16.328  0.00  0.00    +0.000 A 
ATOM     19  N   UNL     1      37.643   7.048  15.822  0.00  0.00    +0.000 NA
ATOM     20  C   UNL     1      37.447   8.015  16.746  0.00  0.00    +0.000 A 
ATOM     21  C   UNL     1      36.810   9.245  16.772  0.00  0.00    +0.000 A 
ATOM     22  C   UNL     1      36.793   9.964  17.960  0.00  0.00    +0.000 A 
ATOM     23  C   UNL     1      37.372   9.519  19.116  0.00  0.00    +0.000 A 
ATOM     24  C   UNL     1      38.016   8.286  19.094  0.00  0.00    +0.000 A 
ATOM     25  C   UNL     1      38.032   7.560  17.890  0.00  0.00    +0.000 A 
ATOM     26  N   UNL     1      38.552   6.352  17.624  0.00  0.00    +0.000 N 
BRANCH  26  27
ATOM     27  C   UNL     1      39.218   5.522  18.640  0.00  0.00    +0.000 C 
BRANCH  27  28
ATOM     28  C   UNL     1      40.552   6.132  18.839  0.00  0.00    +0.000 C 
ATOM     29  C   UNL     1      41.461   6.293  17.711  0.00  0.00    +0.000 C 
ATOM     30  C   UNL     1      40.995   6.404  20.205  0.00  0.00    +0.000 C 
ENDBRANCH  27  28
ENDBRANCH  26  27
ENDBRANCH  17  18
ENDBRANCH  16  17
ENDBRANCH   2  16
TORSDOF 7
ENDMDL
