MODEL 1
REMARK VINA RESULT:      -8.2      0.000      0.000
REMARK  Name = 
REMARK  8 active torsions:
REMARK  status: ('A' for Active; 'I' for Inactive)
REMARK    1  A    between atoms: C_2  and  C_4
REMARK    2  A    between atoms: C_4  and  C_5
REMARK    3  A    between atoms: C_5  and  C_6
REMARK    4  A    between atoms: C_6  and  C_7
REMARK    5  A    between atoms: C_7  and  N_9
REMARK    6  A    between atoms: C_10  and  C_12
REMARK    7  A    between atoms: N_15  and  C_16
REMARK    8  A    between atoms: C_16  and  C_17
REMARK                            x       y       z     vdW  Elec       q    Type
REMARK                         _______ _______ _______ _____ _____    ______ ____
ROOT
ATOM      1  C   UNL     1      37.977   2.527  14.945  0.00  0.00    +0.000 A 
ATOM      2  C   UNL     1      38.842   2.190  13.926  0.00  0.00    +0.000 A 
ATOM      3  N   UNL     1      39.766   3.105  13.319  0.00  0.00    +0.000 NA
ATOM      4  N   UNL     1      38.635   0.903  13.655  0.00  0.00    +0.000 N 
ATOM      5  C   UNL     1      37.688   0.358  14.426  0.00  0.00    +0.000 A 
ATOM      6  N   UNL     1      37.134  -0.879  14.531  0.00  0.00    +0.000 NA
ATOM      7  C   UNL     1      36.167  -1.156  15.421  0.00  0.00    +0.000 A 
ATOM      8  C   UNL     1      35.604  -2.425  15.522  0.00  0.00    +0.000 A 
ATOM      9  C   UNL     1      34.620  -2.672  16.441  0.00  0.00    +0.000 A 
ATOM     10  C   UNL     1      34.190  -1.657  17.266  0.00  0.00    +0.000 A 
ATOM     11  C   UNL     1      34.744  -0.415  17.165  0.00  0.00    +0.000 A 
ATOM     12  C   UNL     1      35.737  -0.132  16.248  0.00  0.00    +0.000 A 
ATOM     13  N   UNL     1      36.293   1.099  16.141  0.00  0.00    +0.000 NA
ATOM     14  C   UNL     1      37.256   1.371  15.251  0.00  0.00    +0.000 A 
ENDROOT
BRANCH   1  16
ATOM     15  N   UNL     1      38.667   4.161  16.673  0.00  0.00    +0.000 NA
ATOM     16  C   UNL     1      37.828   3.816  15.579  0.00  0.00    +0.000 C 
ATOM     17  O   UNL     1      36.963   4.607  15.151  0.00  0.00    +0.000 OA
BRANCH  15  18
ATOM     18  C   UNL     1      38.357   5.630  17.249  0.00  0.00    +0.000 C 
ATOM     19  C   UNL     1      39.786   6.231  16.603  0.00  0.00    +0.000 C 
BRANCH  18  20
ATOM     20  C   UNL     1      39.087   5.283  18.700  0.00  0.00    +0.000 C 
BRANCH  20  21
ATOM     21  C   UNL     1      39.994   6.519  18.811  0.00  0.00    +0.000 C 
BRANCH  21  22
ATOM     22  C   UNL     1      40.699   6.416  20.118  0.00  0.00    +0.000 C 
BRANCH  22  24
ATOM     23  C   UNL     1      42.969   6.038  21.154  0.00  0.00    +0.000 C 
ATOM     24  C   UNL     1      42.157   6.693  20.096  0.00  0.00    +0.000 C 
ATOM     25  C   UNL     1      42.784   6.738  18.744  0.00  0.00    +0.000 C 
ENDBRANCH  22  24
ENDBRANCH  21  22
ENDBRANCH  20  21
ENDBRANCH  18  20
ENDBRANCH  15  18
ENDBRANCH   1  16
BRANCH   4  26
ATOM     26  C   UNL     1      39.360   0.166  12.631  0.00  0.00    +0.000 C 
BRANCH  26  27
ATOM     27  C   UNL     1      40.539  -0.458  13.293  0.00  0.00    +0.000 A 
ATOM     28  C   UNL     1      40.447  -1.743  13.774  0.00  0.00    +0.000 A 
ATOM     29  C   UNL     1      41.531  -2.353  14.397  0.00  0.00    +0.000 A 
ATOM     30  C   UNL     1      42.704  -1.634  14.518  0.00  0.00    +0.000 A 
ATOM     31  C   UNL     1      42.789  -0.359  14.039  0.00  0.00    +0.000 A 
ATOM     32  C   UNL     1      41.713   0.249  13.420  0.00  0.00    +0.000 A 
ENDBRANCH  26  27
ENDBRANCH   4  26
TORSDOF 8
ENDMDL
MODEL 2
REMARK VINA RESULT:      -8.0      1.804      4.385
REMARK  Name = 
REMARK  8 active torsions:
REMARK  status: ('A' for Active; 'I' for Inactive)
REMARK    1  A    between atoms: C_2  and  C_4
REMARK    2  A    between atoms: C_4  and  C_5
REMARK    3  A    between atoms: C_5  and  C_6
REMARK    4  A    between atoms: C_6  and  C_7
REMARK    5  A    between atoms: C_7  and  N_9
REMARK    6  A    between atoms: C_10  and  C_12
REMARK    7  A    between atoms: N_15  and  C_16
REMARK    8  A    between atoms: C_16  and  C_17
REMARK                            x       y       z     vdW  Elec       q    Type
REMARK                         _______ _______ _______ _____ _____    ______ ____
ROOT
ATOM      1  C   UNL     1      36.977   1.615  15.674  0.00  0.00    +0.000 A 
ATOM      2  C   UNL     1      36.197   0.692  16.338  0.00  0.00    +0.000 A 
ATOM      3  N   UNL     1      35.342   1.009  17.445  0.00  0.00    +0.000 NA
ATOM      4  N   UNL     1      36.409  -0.484  15.749  0.00  0.00    +0.000 N 
ATOM      5  C   UNL     1      37.278  -0.406  14.737  0.00  0.00    +0.000 A 
ATOM      6  N   UNL     1      37.804  -1.299  13.857  0.00  0.00    +0.000 NA
ATOM      7  C   UNL     1      38.687  -0.936  12.911  0.00  0.00    +0.000 A 
ATOM      8  C   UNL     1      39.222  -1.856  12.014  0.00  0.00    +0.000 A 
ATOM      9  C   UNL     1      40.120  -1.450  11.064  0.00  0.00    +0.000 A 
ATOM     10  C   UNL     1      40.491  -0.126  11.001  0.00  0.00    +0.000 A 
ATOM     11  C   UNL     1      39.966   0.773  11.880  0.00  0.00    +0.000 A 
ATOM     12  C   UNL     1      39.059   0.397  12.852  0.00  0.00    +0.000 A 
ATOM     13  N   UNL     1      38.532   1.283  13.730  0.00  0.00    +0.000 NA
ATOM     14  C   UNL     1      37.652   0.916  14.671  0.00  0.00    +0.000 A 
ENDROOT
BRANCH   1  16
ATOM     15  N   UNL     1      38.121   3.500  16.803  0.00  0.00    +0.000 NA
ATOM     16  C   UNL     1      37.088   3.029  15.949  0.00  0.00    +0.000 C 
ATOM     17  O   UNL     1      36.271   3.815  15.427  0.00  0.00    +0.000 OA
BRANCH  15  18
ATOM     18  C   UNL     1      38.087   5.096  16.993  0.00  0.00    +0.000 C 
ATOM     19  C   UNL     1      39.492   5.276  16.091  0.00  0.00    +0.000 C 
BRANCH  18  20
ATOM     20  C   UNL     1      38.939   5.008  18.416  0.00  0.00    +0.000 C 
BRANCH  20  21
ATOM     21  C   UNL     1      38.942   6.500  18.784  0.00  0.00    +0.000 C 
BRANCH  21  22
ATOM     22  C   UNL     1      39.930   6.668  19.884  0.00  0.00    +0.000 C 
BRANCH  22  24
ATOM     23  C   UNL     1      41.892   7.073  18.350  0.00  0.00    +0.000 C 
ATOM     24  C   UNL     1      41.343   6.374  19.541  0.00  0.00    +0.000 C 
ATOM     25  C   UNL     1      42.276   6.256  20.698  0.00  0.00    +0.000 C 
ENDBRANCH  22  24
ENDBRANCH  21  22
ENDBRANCH  20  21
ENDBRANCH  18  20
ENDBRANCH  15  18
ENDBRANCH   1  16
BRANCH   4  26
ATOM     26  C   UNL     1      35.764  -1.721  16.162  0.00  0.00    +0.000 C 
BRANCH  26  27
ATOM     27  C   UNL     1      36.774  -2.510  16.919  0.00  0.00    +0.000 A 
ATOM     28  C   UNL     1      37.304  -1.999  18.080  0.00  0.00    +0.000 A 
ATOM     29  C   UNL     1      38.250  -2.712  18.810  0.00  0.00    +0.000 A 
ATOM     30  C   UNL     1      38.642  -3.949  18.337  0.00  0.00    +0.000 A 
ATOM     31  C   UNL     1      38.113  -4.450  17.183  0.00  0.00    +0.000 A 
ATOM     32  C   UNL     1      37.173  -3.743  16.456  0.00  0.00    +0.000 A 
ENDBRANCH  26  27
ENDBRANCH   4  26
TORSDOF 8
ENDMDL
MODEL 3
REMARK VINA RESULT:      -7.9      1.720      4.802
REMARK  Name = 
REMARK  8 active torsions:
REMARK  status: ('A' for Active; 'I' for Inactive)
REMARK    1  A    between atoms: C_2  and  C_4
REMARK    2  A    between atoms: C_4  and  C_5
REMARK    3  A    between atoms: C_5  and  C_6
REMARK    4  A    between atoms: C_6  and  C_7
REMARK    5  A    between atoms: C_7  and  N_9
REMARK    6  A    between atoms: C_10  and  C_12
REMARK    7  A    between atoms: N_15  and  C_16
REMARK    8  A    between atoms: C_16  and  C_17
REMARK                            x       y       z     vdW  Elec       q    Type
REMARK                         _______ _______ _______ _____ _____    ______ ____
ROOT
ATOM      1  C   UNL     1      37.808   1.878  14.829  0.00  0.00    +0.000 A 
ATOM      2  C   UNL     1      36.761   1.095  15.264  0.00  0.00    +0.000 A 
ATOM      3  N   UNL     1      35.450   1.597  15.561  0.00  0.00    +0.000 NA
ATOM      4  N   UNL     1      37.218  -0.153  15.339  0.00  0.00    +0.000 N 
ATOM      5  C   UNL     1      38.503  -0.255  14.982  0.00  0.00    +0.000 A 
ATOM      6  N   UNL     1      39.394  -1.278  14.895  0.00  0.00    +0.000 NA
ATOM      7  C   UNL     1      40.662  -1.089  14.495  0.00  0.00    +0.000 A 
ATOM      8  C   UNL     1      41.569  -2.142  14.408  0.00  0.00    +0.000 A 
ATOM      9  C   UNL     1      42.855  -1.913  13.997  0.00  0.00    +0.000 A 
ATOM     10  C   UNL     1      43.246  -0.634  13.670  0.00  0.00    +0.000 A 
ATOM     11  C   UNL     1      42.356   0.395  13.756  0.00  0.00    +0.000 A 
ATOM     12  C   UNL     1      41.052   0.199  14.168  0.00  0.00    +0.000 A 
ATOM     13  N   UNL     1      40.162   1.215  14.256  0.00  0.00    +0.000 NA
ATOM     14  C   UNL     1      38.898   1.023  14.655  0.00  0.00    +0.000 A 
ENDROOT
BRANCH   1  16
ATOM     15  N   UNL     1      38.379   4.177  15.555  0.00  0.00    +0.000 NA
ATOM     16  C   UNL     1      37.800   3.304  14.596  0.00  0.00    +0.000 C 
ATOM     17  O   UNL     1      37.282   3.744  13.548  0.00  0.00    +0.000 OA
BRANCH  15  18
ATOM     18  C   UNL     1      38.276   5.723  15.127  0.00  0.00    +0.000 C 
ATOM     19  C   UNL     1      39.948   5.876  15.119  0.00  0.00    +0.000 C 
BRANCH  18  20
ATOM     20  C   UNL     1      38.175   6.220  16.708  0.00  0.00    +0.000 C 
BRANCH  20  21
ATOM     21  C   UNL     1      39.325   5.386  17.293  0.00  0.00    +0.000 C 
BRANCH  21  22
ATOM     22  C   UNL     1      39.147   5.389  18.771  0.00  0.00    +0.000 C 
BRANCH  22  24
ATOM     23  C   UNL     1      41.401   6.517  18.891  0.00  0.00    +0.000 C 
ATOM     24  C   UNL     1      40.094   6.233  19.540  0.00  0.00    +0.000 C 
ATOM     25  C   UNL     1      39.486   7.376  20.278  0.00  0.00    +0.000 C 
ENDBRANCH  22  24
ENDBRANCH  21  22
ENDBRANCH  20  21
ENDBRANCH  18  20
ENDBRANCH  15  18
ENDBRANCH   1  16
BRANCH   4  26
ATOM     26  C   UNL     1      36.410  -1.286  15.763  0.00  0.00    +0.000 C 
BRANCH  26  27
ATOM     27  C   UNL     1      36.765  -1.571  17.180  0.00  0.00    +0.000 A 
ATOM     28  C   UNL     1      37.637  -2.594  17.470  0.00  0.00    +0.000 A 
ATOM     29  C   UNL     1      37.987  -2.884  18.785  0.00  0.00    +0.000 A 
ATOM     30  C   UNL     1      37.435  -2.117  19.793  0.00  0.00    +0.000 A 
ATOM     31  C   UNL     1      36.570  -1.104  19.498  0.00  0.00    +0.000 A 
ATOM     32  C   UNL     1      36.220  -0.813  18.193  0.00  0.00    +0.000 A 
ENDBRANCH  26  27
ENDBRANCH   4  26
TORSDOF 8
ENDMDL
MODEL 4
REMARK VINA RESULT:      -7.8      1.916      6.682
REMARK  Name = 
REMARK  8 active torsions:
REMARK  status: ('A' for Active; 'I' for Inactive)
REMARK    1  A    between atoms: C_2  and  C_4
REMARK    2  A    between atoms: C_4  and  C_5
REMARK    3  A    between atoms: C_5  and  C_6
REMARK    4  A    between atoms: C_6  and  C_7
REMARK    5  A    between atoms: C_7  and  N_9
REMARK    6  A    between atoms: C_10  and  C_12
REMARK    7  A    between atoms: N_15  and  C_16
REMARK    8  A    between atoms: C_16  and  C_17
REMARK                            x       y       z     vdW  Elec       q    Type
REMARK                         _______ _______ _______ _____ _____    ______ ____
ROOT
ATOM      1  C   UNL     1      36.769   2.282  15.764  0.00  0.00    +0.000 A 
ATOM      2  C   UNL     1      36.958   2.134  14.406  0.00  0.00    +0.000 A 
ATOM      3  N   UNL     1      36.234   1.203  13.589  0.00  0.00    +0.000 NA
ATOM      4  N   UNL     1      37.906   3.001  14.054  0.00  0.00    +0.000 N 
ATOM      5  C   UNL     1      38.362   3.717  15.087  0.00  0.00    +0.000 A 
ATOM      6  N   UNL     1      39.296   4.693  15.236  0.00  0.00    +0.000 NA
ATOM      7  C   UNL     1      39.559   5.254  16.428  0.00  0.00    +0.000 A 
ATOM      8  C   UNL     1      40.518   6.253  16.573  0.00  0.00    +0.000 A 
ATOM      9  C   UNL     1      40.761   6.802  17.804  0.00  0.00    +0.000 A 
ATOM     10  C   UNL     1      40.051   6.360  18.898  0.00  0.00    +0.000 A 
ATOM     11  C   UNL     1      39.113   5.382  18.753  0.00  0.00    +0.000 A 
ATOM     12  C   UNL     1      38.844   4.806  17.526  0.00  0.00    +0.000 A 
ATOM     13  N   UNL     1      37.913   3.834  17.373  0.00  0.00    +0.000 NA
ATOM     14  C   UNL     1      37.654   3.277  16.182  0.00  0.00    +0.000 A 
ENDROOT
BRANCH   1  16
ATOM     15  N   UNL     1      36.310   0.466  17.384  0.00  0.00    +0.000 NA
ATOM     16  C   UNL     1      35.844   1.557  16.604  0.00  0.00    +0.000 C 
ATOM     17  O   UNL     1      34.646   1.908  16.630  0.00  0.00    +0.000 OA
BRANCH  15  18
ATOM     18  C   UNL     1      35.141  -0.217  18.253  0.00  0.00    +0.000 C 
ATOM     19  C   UNL     1      36.264  -0.959  19.259  0.00  0.00    +0.000 C 
BRANCH  18  20
ATOM     20  C   UNL     1      35.078  -1.537  17.248  0.00  0.00    +0.000 C 
BRANCH  20  21
ATOM     21  C   UNL     1      36.581  -1.841  17.159  0.00  0.00    +0.000 C 
BRANCH  21  22
ATOM     22  C   UNL     1      36.812  -2.482  15.835  0.00  0.00    +0.000 C 
BRANCH  22  24
ATOM     23  C   UNL     1      38.872  -1.076  15.457  0.00  0.00    +0.000 C 
ATOM     24  C   UNL     1      37.665  -1.727  14.885  0.00  0.00    +0.000 C 
ATOM     25  C   UNL     1      37.851  -2.355  13.546  0.00  0.00    +0.000 C 
ENDBRANCH  22  24
ENDBRANCH  21  22
ENDBRANCH  20  21
ENDBRANCH  18  20
ENDBRANCH  15  18
ENDBRANCH   1  16
BRANCH   4  26
ATOM     26  C   UNL     1      38.394   3.154  12.692  0.00  0.00    +0.000 C 
BRANCH  26  27
ATOM     27  C   UNL     1      39.218   1.952  12.385  0.00  0.00    +0.000 A 
ATOM     28  C   UNL     1      40.338   1.686  13.137  0.00  0.00    +0.000 A 
ATOM     29  C   UNL     1      41.128   0.571  12.874  0.00  0.00    +0.000 A 
ATOM     30  C   UNL     1      40.757  -0.262  11.837  0.00  0.00    +0.000 A 
ATOM     31  C   UNL     1      39.645   0.009  11.093  0.00  0.00    +0.000 A 
ATOM     32  C   UNL     1      38.859   1.115  11.353  0.00  0.00    +0.000 A 
ENDBRANCH  26  27
ENDBRANCH   4  26
TORSDOF 8
ENDMDL
MODEL 5
REMARK VINA RESULT:      -7.6      1.533      2.782
REMARK  Name = 
REMARK  8 active torsions:
REMARK  status: ('A' for Active; 'I' for Inactive)
REMARK    1  A    between atoms: C_2  and  C_4
REMARK    2  A    between atoms: C_4  and  C_5
REMARK    3  A    between atoms: C_5  and  C_6
REMARK    4  A    between atoms: C_6  and  C_7
REMARK    5  A    between atoms: C_7  and  N_9
REMARK    6  A    between atoms: C_10  and  C_12
REMARK    7  A    between atoms: N_15  and  C_16
REMARK    8  A    between atoms: C_16  and  C_17
REMARK                            x       y       z     vdW  Elec       q    Type
REMARK                         _______ _______ _______ _____ _____    ______ ____
ROOT
ATOM      1  C   UNL     1      37.833   2.517  14.862  0.00  0.00    +0.000 A 
ATOM      2  C   UNL     1      38.630   2.217  13.778  0.00  0.00    +0.000 A 
ATOM      3  N   UNL     1      39.507   3.156  13.139  0.00  0.00    +0.000 NA
ATOM      4  N   UNL     1      38.411   0.937  13.482  0.00  0.00    +0.000 N 
ATOM      5  C   UNL     1      37.520   0.363  14.297  0.00  0.00    +0.000 A 
ATOM      6  N   UNL     1      36.979  -0.880  14.400  0.00  0.00    +0.000 NA
ATOM      7  C   UNL     1      36.076  -1.190  15.344  0.00  0.00    +0.000 A 
ATOM      8  C   UNL     1      35.526  -2.465  15.444  0.00  0.00    +0.000 A 
ATOM      9  C   UNL     1      34.606  -2.746  16.418  0.00  0.00    +0.000 A 
ATOM     10  C   UNL     1      34.228  -1.759  17.300  0.00  0.00    +0.000 A 
ATOM     11  C   UNL     1      34.768  -0.511  17.201  0.00  0.00    +0.000 A 
ATOM     12  C   UNL     1      35.697  -0.195  16.229  0.00  0.00    +0.000 A 
ATOM     13  N   UNL     1      36.239   1.042  16.123  0.00  0.00    +0.000 NA
ATOM     14  C   UNL     1      37.140   1.348  15.180  0.00  0.00    +0.000 A 
ENDROOT
BRANCH   1  16
ATOM     15  N   UNL     1      38.642   4.111  16.575  0.00  0.00    +0.000 NA
ATOM     16  C   UNL     1      37.722   3.785  15.544  0.00  0.00    +0.000 C 
ATOM     17  O   UNL     1      36.815   4.576  15.211  0.00  0.00    +0.000 OA
BRANCH  15  18
ATOM     18  C   UNL     1      38.364   5.559  17.218  0.00  0.00    +0.000 C 
ATOM     19  C   UNL     1      39.766   6.179  16.535  0.00  0.00    +0.000 C 
BRANCH  18  20
ATOM     20  C   UNL     1      39.152   5.157  18.623  0.00  0.00    +0.000 C 
BRANCH  20  21
ATOM     21  C   UNL     1      39.765   6.526  18.952  0.00  0.00    +0.000 C 
BRANCH  21  22
ATOM     22  C   UNL     1      40.634   6.331  20.146  0.00  0.00    +0.000 C 
BRANCH  22  24
ATOM     23  C   UNL     1      42.954   6.449  21.131  0.00  0.00    +0.000 C 
ATOM     24  C   UNL     1      42.039   6.789  20.011  0.00  0.00    +0.000 C 
ATOM     25  C   UNL     1      42.627   6.670  18.646  0.00  0.00    +0.000 C 
ENDBRANCH  22  24
ENDBRANCH  21  22
ENDBRANCH  20  21
ENDBRANCH  18  20
ENDBRANCH  15  18
ENDBRANCH   1  16
BRANCH   4  26
ATOM     26  C   UNL     1      39.069   0.237  12.390  0.00  0.00    +0.000 C 
BRANCH  26  27
ATOM     27  C   UNL     1      38.438   0.704  11.126  0.00  0.00    +0.000 A 
ATOM     28  C   UNL     1      39.231   1.034  10.051  0.00  0.00    +0.000 A 
ATOM     29  C   UNL     1      38.670   1.473   8.857  0.00  0.00    +0.000 A 
ATOM     30  C   UNL     1      37.295   1.570   8.777  0.00  0.00    +0.000 A 
ATOM     31  C   UNL     1      36.513   1.243   9.847  0.00  0.00    +0.000 A 
ATOM     32  C   UNL     1      37.068   0.805  11.035  0.00  0.00    +0.000 A 
ENDBRANCH  26  27
ENDBRANCH   4  26
TORSDOF 8
ENDMDL
MODEL 6
REMARK VINA RESULT:      -7.4      1.893      5.086
REMARK  Name = 
REMARK  8 active torsions:
REMARK  status: ('A' for Active; 'I' for Inactive)
REMARK    1  A    between atoms: C_2  and  C_4
REMARK    2  A    between atoms: C_4  and  C_5
REMARK    3  A    between atoms: C_5  and  C_6
REMARK    4  A    between atoms: C_6  and  C_7
REMARK    5  A    between atoms: C_7  and  N_9
REMARK    6  A    between atoms: C_10  and  C_12
REMARK    7  A    between atoms: N_15  and  C_16
REMARK    8  A    between atoms: C_16  and  C_17
REMARK                            x       y       z     vdW  Elec       q    Type
REMARK                         _______ _______ _______ _____ _____    ______ ____
ROOT
ATOM      1  C   UNL     1      37.775   0.680  14.974  0.00  0.00    +0.000 A 
ATOM      2  C   UNL     1      37.472  -0.298  15.897  0.00  0.00    +0.000 A 
ATOM      3  N   UNL     1      36.863  -0.042  17.170  0.00  0.00    +0.000 NA
ATOM      4  N   UNL     1      37.851  -1.459  15.366  0.00  0.00    +0.000 N 
ATOM      5  C   UNL     1      38.387  -1.320  14.149  0.00  0.00    +0.000 A 
ATOM      6  N   UNL     1      38.906  -2.176  13.229  0.00  0.00    +0.000 NA
ATOM      7  C   UNL     1      39.391  -1.750  12.051  0.00  0.00    +0.000 A 
ATOM      8  C   UNL     1      39.923  -2.632  11.114  0.00  0.00    +0.000 A 
ATOM      9  C   UNL     1      40.409  -2.163   9.923  0.00  0.00    +0.000 A 
ATOM     10  C   UNL     1      40.370  -0.813   9.657  0.00  0.00    +0.000 A 
ATOM     11  C   UNL     1      39.849   0.048  10.576  0.00  0.00    +0.000 A 
ATOM     12  C   UNL     1      39.351  -0.391  11.787  0.00  0.00    +0.000 A 
ATOM     13  N   UNL     1      38.831   0.458  12.706  0.00  0.00    +0.000 NA
ATOM     14  C   UNL     1      38.349   0.029  13.880  0.00  0.00    +0.000 A 
ENDROOT
BRANCH   1  16
ATOM     15  N   UNL     1      38.435   2.885  15.888  0.00  0.00    +0.000 NA
ATOM     16  C   UNL     1      37.553   2.102  15.097  0.00  0.00    +0.000 C 
ATOM     17  O   UNL     1      36.585   2.618  14.501  0.00  0.00    +0.000 OA
BRANCH  15  18
ATOM     18  C   UNL     1      38.031   4.442  15.908  0.00  0.00    +0.000 C 
ATOM     19  C   UNL     1      39.546   4.887  15.337  0.00  0.00    +0.000 C 
BRANCH  18  20
ATOM     20  C   UNL     1      38.509   4.610  17.490  0.00  0.00    +0.000 C 
BRANCH  20  21
ATOM     21  C   UNL     1      38.986   6.070  17.440  0.00  0.00    +0.000 C 
BRANCH  21  22
ATOM     22  C   UNL     1      39.393   6.435  18.824  0.00  0.00    +0.000 C 
BRANCH  22  24
ATOM     23  C   UNL     1      41.400   6.305  20.348  0.00  0.00    +0.000 C 
ATOM     24  C   UNL     1      40.838   6.701  19.030  0.00  0.00    +0.000 C 
ATOM     25  C   UNL     1      41.715   6.435  17.855  0.00  0.00    +0.000 C 
ENDBRANCH  22  24
ENDBRANCH  21  22
ENDBRANCH  20  21
ENDBRANCH  18  20
ENDBRANCH  15  18
ENDBRANCH   1  16
BRANCH   4  26
ATOM     26  C   UNL     1      37.698  -2.741  16.035  0.00  0.00    +0.000 C 
BRANCH  26  27
ATOM     27  C   UNL     1      36.348  -3.260  15.685  0.00  0.00    +0.000 A 
ATOM     28  C   UNL     1      35.243  -2.788  16.356  0.00  0.00    +0.000 A 
ATOM     29  C   UNL     1      33.968  -3.254  16.052  0.00  0.00    +0.000 A 
ATOM     30  C   UNL     1      33.840  -4.204  15.057  0.00  0.00    +0.000 A 
ATOM     31  C   UNL     1      34.940  -4.669  14.396  0.00  0.00    +0.000 A 
ATOM     32  C   UNL     1      36.208  -4.208  14.697  0.00  0.00    +0.000 A 
ENDBRANCH  26  27
ENDBRANCH   4  26
TORSDOF 8
ENDMDL
MODEL 7
REMARK VINA RESULT:      -7.1      2.824      8.235
REMARK  Name = 
REMARK  8 active torsions:
REMARK  status: ('A' for Active; 'I' for Inactive)
REMARK    1  A    between atoms: C_2  and  C_4
REMARK    2  A    between atoms: C_4  and  C_5
REMARK    3  A    between atoms: C_5  and  C_6
REMARK    4  A    between atoms: C_6  and  C_7
REMARK    5  A    between atoms: C_7  and  N_9
REMARK    6  A    between atoms: C_10  and  C_12
REMARK    7  A    between atoms: N_15  and  C_16
REMARK    8  A    between atoms: C_16  and  C_17
REMARK                            x       y       z     vdW  Elec       q    Type
REMARK                         _______ _______ _______ _____ _____    ______ ____
ROOT
ATOM      1  C   UNL     1      36.900   3.846  16.312  0.00  0.00    +0.000 A 
ATOM      2  C   UNL     1      37.875   4.271  17.188  0.00  0.00    +0.000 A 
ATOM      3  N   UNL     1      38.109   3.686  18.477  0.00  0.00    +0.000 NA
ATOM      4  N   UNL     1      38.509   5.283  16.598  0.00  0.00    +0.000 N 
ATOM      5  C   UNL     1      38.020   5.561  15.385  0.00  0.00    +0.000 A 
ATOM      6  N   UNL     1      38.315   6.472  14.420  0.00  0.00    +0.000 NA
ATOM      7  C   UNL     1      37.640   6.530  13.260  0.00  0.00    +0.000 A 
ATOM      8  C   UNL     1      37.948   7.466  12.277  0.00  0.00    +0.000 A 
ATOM      9  C   UNL     1      37.238   7.497  11.107  0.00  0.00    +0.000 A 
ATOM     10  C   UNL     1      36.216   6.596  10.908  0.00  0.00    +0.000 A 
ATOM     11  C   UNL     1      35.917   5.680  11.872  0.00  0.00    +0.000 A 
ATOM     12  C   UNL     1      36.613   5.623  13.064  0.00  0.00    +0.000 A 
ATOM     13  N   UNL     1      36.322   4.716  14.028  0.00  0.00    +0.000 NA
ATOM     14  C   UNL     1      36.998   4.662  15.183  0.00  0.00    +0.000 A 
ENDROOT
BRANCH   1  16
ATOM     15  N   UNL     1      36.409   1.507  16.962  0.00  0.00    +0.000 NA
ATOM     16  C   UNL     1      35.953   2.773  16.506  0.00  0.00    +0.000 C 
ATOM     17  O   UNL     1      34.744   2.980  16.271  0.00  0.00    +0.000 OA
BRANCH  15  18
ATOM     18  C   UNL     1      35.217   0.440  17.119  0.00  0.00    +0.000 C 
ATOM     19  C   UNL     1      36.007  -0.319  18.393  0.00  0.00    +0.000 C 
BRANCH  18  20
ATOM     20  C   UNL     1      35.900  -0.583  16.004  0.00  0.00    +0.000 C 
BRANCH  20  21
ATOM     21  C   UNL     1      37.268  -0.785  16.674  0.00  0.00    +0.000 C 
BRANCH  21  22
ATOM     22  C   UNL     1      38.110  -1.544  15.708  0.00  0.00    +0.000 C 
BRANCH  22  24
ATOM     23  C   UNL     1      38.698  -3.458  17.244  0.00  0.00    +0.000 C 
ATOM     24  C   UNL     1      39.161  -2.408  16.299  0.00  0.00    +0.000 C 
ATOM     25  C   UNL     1      40.253  -2.820  15.372  0.00  0.00    +0.000 C 
ENDBRANCH  22  24
ENDBRANCH  21  22
ENDBRANCH  20  21
ENDBRANCH  18  20
ENDBRANCH  15  18
ENDBRANCH   1  16
BRANCH   4  26
ATOM     26  C   UNL     1      39.613   6.008  17.204  0.00  0.00    +0.000 C 
BRANCH  26  27
ATOM     27  C   UNL     1      39.032   6.903  18.243  0.00  0.00    +0.000 A 
ATOM     28  C   UNL     1      39.523   6.863  19.527  0.00  0.00    +0.000 A 
ATOM     29  C   UNL     1      39.000   7.686  20.519  0.00  0.00    +0.000 A 
ATOM     30  C   UNL     1      37.975   8.547  20.180  0.00  0.00    +0.000 A 
ATOM     31  C   UNL     1      37.492   8.582  18.904  0.00  0.00    +0.000 A 
ATOM     32  C   UNL     1      38.009   7.765  17.916  0.00  0.00    +0.000 A 
ENDBRANCH  26  27
ENDBRANCH   4  26
TORSDOF 8
ENDMDL
MODEL 8
REMARK VINA RESULT:      -6.9     27.218     31.008
REMARK  Name = 
REMARK  8 active torsions:
REMARK  status: ('A' for Active; 'I' for Inactive)
REMARK    1  A    between atoms: C_2  and  C_4
REMARK    2  A    between atoms: C_4  and  C_5
REMARK    3  A    between atoms: C_5  and  C_6
REMARK    4  A    between atoms: C_6  and  C_7
REMARK    5  A    between atoms: C_7  and  N_9
REMARK    6  A    between atoms: C_10  and  C_12
REMARK    7  A    between atoms: N_15  and  C_16
REMARK    8  A    between atoms: C_16  and  C_17
REMARK                            x       y       z     vdW  Elec       q    Type
REMARK                         _______ _______ _______ _____ _____    ______ ____
ROOT
ATOM      1  C   UNL     1      26.118  14.250  40.791  0.00  0.00    +0.000 A 
ATOM      2  C   UNL     1      25.286  14.951  41.637  0.00  0.00    +0.000 A 
ATOM      3  N   UNL     1      24.968  16.342  41.483  0.00  0.00    +0.000 NA
ATOM      4  N   UNL     1      24.873  14.093  42.569  0.00  0.00    +0.000 N 
ATOM      5  C   UNL     1      25.375  12.866  42.400  0.00  0.00    +0.000 A 
ATOM      6  N   UNL     1      25.259  11.685  43.063  0.00  0.00    +0.000 NA
ATOM      7  C   UNL     1      25.896  10.573  42.660  0.00  0.00    +0.000 A 
ATOM      8  C   UNL     1      25.772   9.367  43.345  0.00  0.00    +0.000 A 
ATOM      9  C   UNL     1      26.436   8.253  42.906  0.00  0.00    +0.000 A 
ATOM     10  C   UNL     1      27.229   8.333  41.783  0.00  0.00    +0.000 A 
ATOM     11  C   UNL     1      27.348   9.514  41.115  0.00  0.00    +0.000 A 
ATOM     12  C   UNL     1      26.692  10.657  41.531  0.00  0.00    +0.000 A 
ATOM     13  N   UNL     1      26.805  11.835  40.872  0.00  0.00    +0.000 NA
ATOM     14  C   UNL     1      26.168  12.942  41.278  0.00  0.00    +0.000 A 
ENDROOT
BRANCH   1  16
ATOM     15  N   UNL     1      26.095  14.969  38.421  0.00  0.00    +0.000 NA
ATOM     16  C   UNL     1      26.812  14.752  39.628  0.00  0.00    +0.000 C 
ATOM     17  O   UNL     1      28.035  14.990  39.706  0.00  0.00    +0.000 OA
BRANCH  15  18
ATOM     18  C   UNL     1      27.029  15.528  37.238  0.00  0.00    +0.000 C 
ATOM     19  C   UNL     1      26.377  17.068  37.393  0.00  0.00    +0.000 C 
BRANCH  18  20
ATOM     20  C   UNL     1      25.919  15.108  36.077  0.00  0.00    +0.000 C 
BRANCH  20  21
ATOM     21  C   UNL     1      26.886  14.795  34.925  0.00  0.00    +0.000 C 
BRANCH  21  22
ATOM     22  C   UNL     1      26.648  15.824  33.875  0.00  0.00    +0.000 C 
BRANCH  22  24
ATOM     23  C   UNL     1      24.741  17.109  32.835  0.00  0.00    +0.000 C 
ATOM     24  C   UNL     1      25.314  15.795  33.226  0.00  0.00    +0.000 C 
ATOM     25  C   UNL     1      25.095  14.688  32.252  0.00  0.00    +0.000 C 
ENDBRANCH  22  24
ENDBRANCH  21  22
ENDBRANCH  20  21
ENDBRANCH  18  20
ENDBRANCH  15  18
ENDBRANCH   1  16
BRANCH   4  26
ATOM     26  C   UNL     1      23.973  14.451  43.654  0.00  0.00    +0.000 C 
BRANCH  26  27
ATOM     27  C   UNL     1      22.604  14.038  43.241  0.00  0.00    +0.000 A 
ATOM     28  C   UNL     1      22.060  12.882  43.751  0.00  0.00    +0.000 A 
ATOM     29  C   UNL     1      20.783  12.470  43.384  0.00  0.00    +0.000 A 
ATOM     30  C   UNL     1      20.074  13.254  42.495  0.00  0.00    +0.000 A 
ATOM     31  C   UNL     1      20.619  14.400  41.993  0.00  0.00    +0.000 A 
ATOM     32  C   UNL     1      21.888  14.811  42.355  0.00  0.00    +0.000 A 
ENDBRANCH  26  27
ENDBRANCH   4  26
TORSDOF 8
ENDMDL
MODEL 9
REMARK VINA RESULT:      -6.8      1.190      2.027
REMARK  Name = 
REMARK  8 active torsions:
REMARK  status: ('A' for Active; 'I' for Inactive)
REMARK    1  A    between atoms: C_2  and  C_4
REMARK    2  A    between atoms: C_4  and  C_5
REMARK    3  A    between atoms: C_5  and  C_6
REMARK    4  A    between atoms: C_6  and  C_7
REMARK    5  A    between atoms: C_7  and  N_9
REMARK    6  A    between atoms: C_10  and  C_12
REMARK    7  A    between atoms: N_15  and  C_16
REMARK    8  A    between atoms: C_16  and  C_17
REMARK                            x       y       z     vdW  Elec       q    Type
REMARK                         _______ _______ _______ _____ _____    ______ ____
ROOT
ATOM      1  C   UNL     1      37.700   2.673  14.023  0.00  0.00    +0.000 A 
ATOM      2  C   UNL     1      38.503   2.175  13.019  0.00  0.00    +0.000 A 
ATOM      3  N   UNL     1      39.323   2.988  12.167  0.00  0.00    +0.000 NA
ATOM      4  N   UNL     1      38.350   0.853  13.025  0.00  0.00    +0.000 N 
ATOM      5  C   UNL     1      37.498   0.435  13.967  0.00  0.00    +0.000 A 
ATOM      6  N   UNL     1      37.025  -0.778  14.360  0.00  0.00    +0.000 NA
ATOM      7  C   UNL     1      36.148  -0.910  15.368  0.00  0.00    +0.000 A 
ATOM      8  C   UNL     1      35.667  -2.156  15.765  0.00  0.00    +0.000 A 
ATOM      9  C   UNL     1      34.773  -2.253  16.797  0.00  0.00    +0.000 A 
ATOM     10  C   UNL     1      34.350  -1.112  17.440  0.00  0.00    +0.000 A 
ATOM     11  C   UNL     1      34.822   0.106  17.051  0.00  0.00    +0.000 A 
ATOM     12  C   UNL     1      35.724   0.240  16.013  0.00  0.00    +0.000 A 
ATOM     13  N   UNL     1      36.198   1.446  15.619  0.00  0.00    +0.000 NA
ATOM     14  C   UNL     1      37.073   1.574  14.612  0.00  0.00    +0.000 A 
ENDROOT
BRANCH   1  16
ATOM     15  N   UNL     1      38.662   4.835  14.755  0.00  0.00    +0.000 NA
ATOM     16  C   UNL     1      37.528   4.056  14.404  0.00  0.00    +0.000 C 
ATOM     17  O   UNL     1      36.378   4.543  14.414  0.00  0.00    +0.000 OA
BRANCH  15  18
ATOM     18  C   UNL     1      38.277   6.346  15.149  0.00  0.00    +0.000 C 
ATOM     19  C   UNL     1      38.635   6.887  13.600  0.00  0.00    +0.000 C 
BRANCH  18  20
ATOM     20  C   UNL     1      39.816   6.666  15.683  0.00  0.00    +0.000 C 
BRANCH  20  21
ATOM     21  C   UNL     1      39.473   7.612  16.844  0.00  0.00    +0.000 C 
BRANCH  21  22
ATOM     22  C   UNL     1      38.398   6.949  17.633  0.00  0.00    +0.000 C 
BRANCH  22  24
ATOM     23  C   UNL     1      38.699   4.565  18.403  0.00  0.00    +0.000 C 
ATOM     24  C   UNL     1      38.850   6.014  18.693  0.00  0.00    +0.000 C 
ATOM     25  C   UNL     1      40.108   6.397  19.396  0.00  0.00    +0.000 C 
ENDBRANCH  22  24
ENDBRANCH  21  22
ENDBRANCH  20  21
ENDBRANCH  18  20
ENDBRANCH  15  18
ENDBRANCH   1  16
BRANCH   4  26
ATOM     26  C   UNL     1      39.035  -0.044  12.107  0.00  0.00    +0.000 C 
BRANCH  26  27
ATOM     27  C   UNL     1      40.112  -0.722  12.878  0.00  0.00    +0.000 A 
ATOM     28  C   UNL     1      41.099   0.030  13.473  0.00  0.00    +0.000 A 
ATOM     29  C   UNL     1      42.119  -0.575  14.200  0.00  0.00    +0.000 A 
ATOM     30  C   UNL     1      42.115  -1.952  14.310  0.00  0.00    +0.000 A 
ATOM     31  C   UNL     1      41.133  -2.692  13.717  0.00  0.00    +0.000 A 
ATOM     32  C   UNL     1      40.119  -2.094  12.994  0.00  0.00    +0.000 A 
ENDBRANCH  26  27
ENDBRANCH   4  26
TORSDOF 8
ENDMDL
MODEL 10
REMARK VINA RESULT:      -6.7      5.639      9.683
REMARK  Name = 
REMARK  8 active torsions:
REMARK  status: ('A' for Active; 'I' for Inactive)
REMARK    1  A    between atoms: C_2  and  C_4
REMARK    2  A    between atoms: C_4  and  C_5
REMARK    3  A    between atoms: C_5  and  C_6
REMARK    4  A    between atoms: C_6  and  C_7
REMARK    5  A    between atoms: C_7  and  N_9
REMARK    6  A    between atoms: C_10  and  C_12
REMARK    7  A    between atoms: N_15  and  C_16
REMARK    8  A    between atoms: C_16  and  C_17
REMARK                            x       y       z     vdW  Elec       q    Type
REMARK                         _______ _______ _______ _____ _____    ______ ____
ROOT
ATOM      1  C   UNL     1      37.630   8.050  16.776  0.00  0.00    +0.000 A 
ATOM      2  C   UNL     1      38.182   6.853  17.180  0.00  0.00    +0.000 A 
ATOM      3  N   UNL     1      38.178   5.656  16.388  0.00  0.00    +0.000 NA
ATOM      4  N   UNL     1      38.688   7.053  18.396  0.00  0.00    +0.000 N 
ATOM      5  C   UNL     1      38.509   8.305  18.830  0.00  0.00    +0.000 A 
ATOM      6  N   UNL     1      38.832   8.979  19.965  0.00  0.00    +0.000 NA
ATOM      7  C   UNL     1      38.520  10.274  20.141  0.00  0.00    +0.000 A 
ATOM      8  C   UNL     1      38.853  10.957  21.307  0.00  0.00    +0.000 A 
ATOM      9  C   UNL     1      38.518  12.277  21.453  0.00  0.00    +0.000 A 
ATOM     10  C   UNL     1      37.849  12.924  20.439  0.00  0.00    +0.000 A 
ATOM     11  C   UNL     1      37.524  12.253  19.298  0.00  0.00    +0.000 A 
ATOM     12  C   UNL     1      37.846  10.921  19.119  0.00  0.00    +0.000 A 
ATOM     13  N   UNL     1      37.527  10.246  17.989  0.00  0.00    +0.000 NA
ATOM     14  C   UNL     1      37.840   8.955  17.818  0.00  0.00    +0.000 A 
ENDROOT
BRANCH   1  16
ATOM     15  N   UNL     1      35.566   8.595  15.521  0.00  0.00    +0.000 NA
ATOM     16  C   UNL     1      36.962   8.330  15.527  0.00  0.00    +0.000 C 
ATOM     17  O   UNL     1      37.627   8.335  14.470  0.00  0.00    +0.000 OA
BRANCH  15  18
ATOM     18  C   UNL     1      34.998   8.884  14.044  0.00  0.00    +0.000 C 
ATOM     19  C   UNL     1      34.280  10.314  14.554  0.00  0.00    +0.000 C 
BRANCH  18  20
ATOM     20  C   UNL     1      33.615   8.012  14.338  0.00  0.00    +0.000 C 
BRANCH  20  21
ATOM     21  C   UNL     1      34.098   6.633  13.861  0.00  0.00    +0.000 C 
BRANCH  21  22
ATOM     22  C   UNL     1      34.680   6.828  12.505  0.00  0.00    +0.000 C 
BRANCH  22  24
ATOM     23  C   UNL     1      36.105   5.899  10.641  0.00  0.00    +0.000 C 
ATOM     24  C   UNL     1      35.604   5.768  12.034  0.00  0.00    +0.000 C 
ATOM     25  C   UNL     1      36.607   5.296  13.031  0.00  0.00    +0.000 C 
ENDBRANCH  22  24
ENDBRANCH  21  22
ENDBRANCH  20  21
ENDBRANCH  18  20
ENDBRANCH  15  18
ENDBRANCH   1  16
BRANCH   4  26
ATOM     26  C   UNL     1      39.362   6.023  19.170  0.00  0.00    +0.000 C 
BRANCH  26  27
ATOM     27  C   UNL     1      40.821   6.308  19.103  0.00  0.00    +0.000 A 
ATOM     28  C   UNL     1      41.440   6.401  17.878  0.00  0.00    +0.000 A 
ATOM     29  C   UNL     1      42.802   6.667  17.783  0.00  0.00    +0.000 A 
ATOM     30  C   UNL     1      43.518   6.836  18.952  0.00  0.00    +0.000 A 
ATOM     31  C   UNL     1      42.898   6.742  20.165  0.00  0.00    +0.000 A 
ATOM     32  C   UNL     1      41.545   6.478  20.262  0.00  0.00    +0.000 A 
ENDBRANCH  26  27
ENDBRANCH   4  26
TORSDOF 8
ENDMDL
