MODEL 1
REMARK VINA RESULT:      -7.4      0.000      0.000
REMARK  Name = 
REMARK  2 active torsions:
REMARK  status: ('A' for Active; 'I' for Inactive)
REMARK    1  A    between atoms: C_2  and  C_3
REMARK    2  A    between atoms: C_3  and  C_6
REMARK                            x       y       z     vdW  Elec       q    Type
REMARK                         _______ _______ _______ _____ _____    ______ ____
ROOT
ATOM      1  C   UNL     1      16.309  11.155  37.567  0.00  0.00    +0.000 A 
ATOM      2  C   UNL     1      16.402  10.373  38.696  0.00  0.00    +0.000 A 
ATOM      3  C   UNL     1      15.258  10.131  39.430  0.00  0.00    +0.000 A 
ATOM      4  C   UNL     1      14.069  10.679  39.003  0.00  0.00    +0.000 A 
ATOM      5  O   UNL     1      12.912  10.445  39.727  0.00  0.00    +0.000 OA
ATOM      6  C   UNL     1      13.999  11.462  37.863  0.00  0.00    +0.000 A 
ATOM      7  C   UNL     1      12.814  12.013  37.430  0.00  0.00    +0.000 A 
ATOM      8  C   UNL     1      12.838  12.779  36.284  0.00  0.00    +0.000 A 
ATOM      9  C   UNL     1      13.993  13.010  35.567  0.00  0.00    +0.000 A 
ATOM     10  O   UNL     1      13.989  13.720  34.512  0.00  0.00    +0.000 OA
ATOM     11  O   UNL     1      15.097  12.464  36.017  0.00  0.00    +0.000 OA
ATOM     12  C   UNL     1      15.135  11.717  37.113  0.00  0.00    +0.000 A 
ATOM     13  C   UNL     1      15.291   9.311  40.636  0.00  0.00    +0.000 C 
ATOM     14  C   UNL     1      16.468   8.805  41.004  0.00  0.00    +0.000 C 
ATOM     15  C   UNL     1      17.720   9.021  40.276  0.00  0.00    +0.000 C 
ATOM     16  C   UNL     1      18.677   9.744  41.225  0.00  0.00    +0.000 C 
ATOM     17  C   UNL     1      18.388   7.724  39.870  0.00  0.00    +0.000 C 
ATOM     18  O   UNL     1      17.601   9.816  39.134  0.00  0.00    +0.000 OA
ENDROOT
BRANCH   1  19
ATOM     19  C   UNL     1      17.549  11.405  36.791  0.00  0.00    +0.000 C 
ATOM     20  C   UNL     1      17.195  11.623  35.321  0.00  0.00    +0.000 C 
ATOM     21  C   UNL     1      18.353  12.538  37.343  0.00  0.00    +0.000 C 
BRANCH  19  23
ATOM     22  C   UNL     1      18.603   9.478  35.700  0.00  0.00    +0.000 C 
ATOM     23  C   UNL     1      18.341  10.125  36.840  0.00  0.00    +0.000 C 
ENDBRANCH  19  23
ENDBRANCH   1  19
TORSDOF 2
ENDMDL
MODEL 2
REMARK VINA RESULT:      -7.3     19.182     21.786
REMARK  Name = 
REMARK  2 active torsions:
REMARK  status: ('A' for Active; 'I' for Inactive)
REMARK    1  A    between atoms: C_2  and  C_3
REMARK    2  A    between atoms: C_3  and  C_6
REMARK                            x       y       z     vdW  Elec       q    Type
REMARK                         _______ _______ _______ _____ _____    ______ ____
ROOT
ATOM      1  C   UNL     1      28.681  23.709  25.520  0.00  0.00    +0.000 A 
ATOM      2  C   UNL     1      27.817  23.779  26.589  0.00  0.00    +0.000 A 
ATOM      3  C   UNL     1      26.528  24.225  26.372  0.00  0.00    +0.000 A 
ATOM      4  C   UNL     1      26.159  24.583  25.094  0.00  0.00    +0.000 A 
ATOM      5  O   UNL     1      24.871  25.032  24.859  0.00  0.00    +0.000 OA
ATOM      6  C   UNL     1      27.045  24.504  24.033  0.00  0.00    +0.000 A 
ATOM      7  C   UNL     1      26.682  24.859  22.754  0.00  0.00    +0.000 A 
ATOM      8  C   UNL     1      27.630  24.749  21.758  0.00  0.00    +0.000 A 
ATOM      9  C   UNL     1      28.912  24.301  21.998  0.00  0.00    +0.000 A 
ATOM     10  O   UNL     1      29.768  24.208  21.063  0.00  0.00    +0.000 OA
ATOM     11  O   UNL     1      29.212  23.973  23.232  0.00  0.00    +0.000 OA
ATOM     12  C   UNL     1      28.341  24.059  24.230  0.00  0.00    +0.000 A 
ATOM     13  C   UNL     1      25.566  24.322  27.463  0.00  0.00    +0.000 C 
ATOM     14  C   UNL     1      25.977  23.963  28.679  0.00  0.00    +0.000 C 
ATOM     15  C   UNL     1      27.326  23.481  28.983  0.00  0.00    +0.000 C 
ATOM     16  C   UNL     1      27.946  24.466  29.977  0.00  0.00    +0.000 C 
ATOM     17  C   UNL     1      27.323  22.120  29.646  0.00  0.00    +0.000 C 
ATOM     18  O   UNL     1      28.185  23.419  27.883  0.00  0.00    +0.000 OA
ENDROOT
BRANCH   1  19
ATOM     19  C   UNL     1      30.062  23.227  25.772  0.00  0.00    +0.000 C 
ATOM     20  C   UNL     1      30.571  22.474  24.545  0.00  0.00    +0.000 C 
ATOM     21  C   UNL     1      30.990  24.328  26.173  0.00  0.00    +0.000 C 
BRANCH  19  23
ATOM     22  C   UNL     1      31.018  21.968  27.647  0.00  0.00    +0.000 C 
ATOM     23  C   UNL     1      29.955  22.203  26.871  0.00  0.00    +0.000 C 
ENDBRANCH  19  23
ENDBRANCH   1  19
TORSDOF 2
ENDMDL
MODEL 3
REMARK VINA RESULT:      -7.2      1.683      2.725
REMARK  Name = 
REMARK  2 active torsions:
REMARK  status: ('A' for Active; 'I' for Inactive)
REMARK    1  A    between atoms: C_2  and  C_3
REMARK    2  A    between atoms: C_3  and  C_6
REMARK                            x       y       z     vdW  Elec       q    Type
REMARK                         _______ _______ _______ _____ _____    ______ ____
ROOT
ATOM      1  C   UNL     1      15.896  11.267  37.288  0.00  0.00    +0.000 A 
ATOM      2  C   UNL     1      17.037  10.855  37.939  0.00  0.00    +0.000 A 
ATOM      3  C   UNL     1      16.912  10.200  39.148  0.00  0.00    +0.000 A 
ATOM      4  C   UNL     1      15.650   9.985  39.655  0.00  0.00    +0.000 A 
ATOM      5  O   UNL     1      15.506   9.330  40.867  0.00  0.00    +0.000 OA
ATOM      6  C   UNL     1      14.515  10.408  38.984  0.00  0.00    +0.000 A 
ATOM      7  C   UNL     1      13.251  10.196  39.486  0.00  0.00    +0.000 A 
ATOM      8  C   UNL     1      12.178  10.652  38.749  0.00  0.00    +0.000 A 
ATOM      9  C   UNL     1      12.327  11.305  37.543  0.00  0.00    +0.000 A 
ATOM     10  O   UNL     1      11.321  11.715  36.882  0.00  0.00    +0.000 OA
ATOM     11  O   UNL     1      13.550  11.484  37.105  0.00  0.00    +0.000 OA
ATOM     12  C   UNL     1      14.620  11.067  37.770  0.00  0.00    +0.000 A 
ATOM     13  C   UNL     1      18.083   9.739  39.885  0.00  0.00    +0.000 C 
ATOM     14  C   UNL     1      19.279   9.974  39.347  0.00  0.00    +0.000 C 
ATOM     15  C   UNL     1      19.488  10.661  38.071  0.00  0.00    +0.000 C 
ATOM     16  C   UNL     1      20.299  11.925  38.365  0.00  0.00    +0.000 C 
ATOM     17  C   UNL     1      20.289   9.834  37.088  0.00  0.00    +0.000 C 
ATOM     18  O   UNL     1      18.316  11.070  37.430  0.00  0.00    +0.000 OA
ENDROOT
BRANCH   1  19
ATOM     19  C   UNL     1      16.050  11.970  35.990  0.00  0.00    +0.000 C 
ATOM     20  C   UNL     1      14.719  12.604  35.593  0.00  0.00    +0.000 C 
ATOM     21  C   UNL     1      17.161  12.970  36.007  0.00  0.00    +0.000 C 
BRANCH  19  23
ATOM     22  C   UNL     1      16.664  11.262  33.724  0.00  0.00    +0.000 C 
ATOM     23  C   UNL     1      16.321  10.900  34.964  0.00  0.00    +0.000 C 
ENDBRANCH  19  23
ENDBRANCH   1  19
TORSDOF 2
ENDMDL
MODEL 4
REMARK VINA RESULT:      -7.0     19.110     20.603
REMARK  Name = 
REMARK  2 active torsions:
REMARK  status: ('A' for Active; 'I' for Inactive)
REMARK    1  A    between atoms: C_2  and  C_3
REMARK    2  A    between atoms: C_3  and  C_6
REMARK                            x       y       z     vdW  Elec       q    Type
REMARK                         _______ _______ _______ _____ _____    ______ ____
ROOT
ATOM      1  C   UNL     1      34.104   2.352  36.463  0.00  0.00    +0.000 A 
ATOM      2  C   UNL     1      33.921   1.314  35.577  0.00  0.00    +0.000 A 
ATOM      3  C   UNL     1      33.707   1.609  34.245  0.00  0.00    +0.000 A 
ATOM      4  C   UNL     1      33.687   2.930  33.855  0.00  0.00    +0.000 A 
ATOM      5  O   UNL     1      33.474   3.243  32.523  0.00  0.00    +0.000 OA
ATOM      6  C   UNL     1      33.874   3.958  34.764  0.00  0.00    +0.000 A 
ATOM      7  C   UNL     1      33.855   5.280  34.380  0.00  0.00    +0.000 A 
ATOM      8  C   UNL     1      34.051   6.238  35.353  0.00  0.00    +0.000 A 
ATOM      9  C   UNL     1      34.261   5.921  36.679  0.00  0.00    +0.000 A 
ATOM     10  O   UNL     1      34.439   6.823  37.557  0.00  0.00    +0.000 OA
ATOM     11  O   UNL     1      34.272   4.648  36.996  0.00  0.00    +0.000 OA
ATOM     12  C   UNL     1      34.089   3.683  36.104  0.00  0.00    +0.000 A 
ATOM     13  C   UNL     1      33.506   0.554  33.258  0.00  0.00    +0.000 C 
ATOM     14  C   UNL     1      33.536  -0.706  33.690  0.00  0.00    +0.000 C 
ATOM     15  C   UNL     1      33.757  -1.092  35.085  0.00  0.00    +0.000 C 
ATOM     16  C   UNL     1      32.507  -1.843  35.550  0.00  0.00    +0.000 C 
ATOM     17  C   UNL     1      34.931  -2.034  35.250  0.00  0.00    +0.000 C 
ATOM     18  O   UNL     1      33.940  -0.023  35.966  0.00  0.00    +0.000 OA
ENDROOT
BRANCH   1  19
ATOM     19  C   UNL     1      34.331   2.016  37.890  0.00  0.00    +0.000 C 
ATOM     20  C   UNL     1      33.905   3.193  38.765  0.00  0.00    +0.000 C 
ATOM     21  C   UNL     1      33.654   0.747  38.297  0.00  0.00    +0.000 C 
BRANCH  19  23
ATOM     22  C   UNL     1      36.357   0.688  38.277  0.00  0.00    +0.000 C 
ATOM     23  C   UNL     1      35.824   1.894  38.060  0.00  0.00    +0.000 C 
ENDBRANCH  19  23
ENDBRANCH   1  19
TORSDOF 2
ENDMDL
MODEL 5
REMARK VINA RESULT:      -6.9     18.540     21.283
REMARK  Name = 
REMARK  2 active torsions:
REMARK  status: ('A' for Active; 'I' for Inactive)
REMARK    1  A    between atoms: C_2  and  C_3
REMARK    2  A    between atoms: C_3  and  C_6
REMARK                            x       y       z     vdW  Elec       q    Type
REMARK                         _______ _______ _______ _____ _____    ______ ____
ROOT
ATOM      1  C   UNL     1      28.078  23.641  26.651  0.00  0.00    +0.000 A 
ATOM      2  C   UNL     1      28.176  23.327  27.988  0.00  0.00    +0.000 A 
ATOM      3  C   UNL     1      29.411  22.981  28.498  0.00  0.00    +0.000 A 
ATOM      4  C   UNL     1      30.496  22.964  27.650  0.00  0.00    +0.000 A 
ATOM      5  O   UNL     1      31.742  22.619  28.146  0.00  0.00    +0.000 OA
ATOM      6  C   UNL     1      30.374  23.284  26.308  0.00  0.00    +0.000 A 
ATOM      7  C   UNL     1      31.455  23.269  25.456  0.00  0.00    +0.000 A 
ATOM      8  C   UNL     1      31.240  23.602  24.135  0.00  0.00    +0.000 A 
ATOM      9  C   UNL     1      29.997  23.944  23.646  0.00  0.00    +0.000 A 
ATOM     10  O   UNL     1      29.825  24.248  22.423  0.00  0.00    +0.000 OA
ATOM     11  O   UNL     1      28.998  23.945  24.495  0.00  0.00    +0.000 OA
ATOM     12  C   UNL     1      29.144  23.633  25.777  0.00  0.00    +0.000 A 
ATOM     13  C   UNL     1      29.580  22.638  29.905  0.00  0.00    +0.000 C 
ATOM     14  C   UNL     1      28.497  22.671  30.681  0.00  0.00    +0.000 C 
ATOM     15  C   UNL     1      27.158  23.028  30.208  0.00  0.00    +0.000 C 
ATOM     16  C   UNL     1      26.258  21.810  30.435  0.00  0.00    +0.000 C 
ATOM     17  C   UNL     1      26.554  24.180  30.985  0.00  0.00    +0.000 C 
ATOM     18  O   UNL     1      27.082  23.342  28.850  0.00  0.00    +0.000 OA
ENDROOT
BRANCH   1  19
ATOM     19  C   UNL     1      26.742  24.011  26.119  0.00  0.00    +0.000 C 
ATOM     20  C   UNL     1      25.742  24.095  27.270  0.00  0.00    +0.000 C 
ATOM     21  C   UNL     1      26.772  25.270  25.315  0.00  0.00    +0.000 C 
BRANCH  19  23
ATOM     22  C   UNL     1      25.690  23.099  24.100  0.00  0.00    +0.000 C 
ATOM     23  C   UNL     1      26.295  22.852  25.266  0.00  0.00    +0.000 C 
ENDBRANCH  19  23
ENDBRANCH   1  19
TORSDOF 2
ENDMDL
MODEL 6
REMARK VINA RESULT:      -6.7     18.945     21.848
REMARK  Name = 
REMARK  2 active torsions:
REMARK  status: ('A' for Active; 'I' for Inactive)
REMARK    1  A    between atoms: C_2  and  C_3
REMARK    2  A    between atoms: C_3  and  C_6
REMARK                            x       y       z     vdW  Elec       q    Type
REMARK                         _______ _______ _______ _____ _____    ______ ____
ROOT
ATOM      1  C   UNL     1      28.780  23.553  26.599  0.00  0.00    +0.000 A 
ATOM      2  C   UNL     1      28.183  24.093  25.482  0.00  0.00    +0.000 A 
ATOM      3  C   UNL     1      26.852  24.453  25.550  0.00  0.00    +0.000 A 
ATOM      4  C   UNL     1      26.174  24.259  26.733  0.00  0.00    +0.000 A 
ATOM      5  O   UNL     1      24.839  24.615  26.818  0.00  0.00    +0.000 OA
ATOM      6  C   UNL     1      26.795  23.716  27.845  0.00  0.00    +0.000 A 
ATOM      7  C   UNL     1      26.123  23.520  29.031  0.00  0.00    +0.000 A 
ATOM      8  C   UNL     1      26.821  22.973  30.086  0.00  0.00    +0.000 A 
ATOM      9  C   UNL     1      28.151  22.619  29.996  0.00  0.00    +0.000 A 
ATOM     10  O   UNL     1      28.773  22.116  30.984  0.00  0.00    +0.000 OA
ATOM     11  O   UNL     1      28.750  22.824  28.847  0.00  0.00    +0.000 OA
ATOM     12  C   UNL     1      28.129  23.348  27.797  0.00  0.00    +0.000 A 
ATOM     13  C   UNL     1      26.163  25.028  24.401  0.00  0.00    +0.000 C 
ATOM     14  C   UNL     1      26.867  25.194  23.281  0.00  0.00    +0.000 C 
ATOM     15  C   UNL     1      28.279  24.835  23.137  0.00  0.00    +0.000 C 
ATOM     16  C   UNL     1      28.366  23.769  22.042  0.00  0.00    +0.000 C 
ATOM     17  C   UNL     1      29.134  26.003  22.691  0.00  0.00    +0.000 C 
ATOM     18  O   UNL     1      28.863  24.290  24.282  0.00  0.00    +0.000 OA
ENDROOT
BRANCH   1  19
ATOM     19  C   UNL     1      30.211  23.172  26.507  0.00  0.00    +0.000 C 
ATOM     20  C   UNL     1      31.083  24.395  26.779  0.00  0.00    +0.000 C 
ATOM     21  C   UNL     1      30.560  22.029  27.406  0.00  0.00    +0.000 C 
BRANCH  19  23
ATOM     22  C   UNL     1      31.662  23.018  24.536  0.00  0.00    +0.000 C 
ATOM     23  C   UNL     1      30.455  22.802  25.067  0.00  0.00    +0.000 C 
ENDBRANCH  19  23
ENDBRANCH   1  19
TORSDOF 2
ENDMDL
MODEL 7
REMARK VINA RESULT:      -6.7     18.790     20.731
REMARK  Name = 
REMARK  2 active torsions:
REMARK  status: ('A' for Active; 'I' for Inactive)
REMARK    1  A    between atoms: C_2  and  C_3
REMARK    2  A    between atoms: C_3  and  C_6
REMARK                            x       y       z     vdW  Elec       q    Type
REMARK                         _______ _______ _______ _____ _____    ______ ____
ROOT
ATOM      1  C   UNL     1      34.160   2.260  36.584  0.00  0.00    +0.000 A 
ATOM      2  C   UNL     1      34.254   3.588  36.231  0.00  0.00    +0.000 A 
ATOM      3  C   UNL     1      34.016   3.943  34.918  0.00  0.00    +0.000 A 
ATOM      4  C   UNL     1      33.693   2.956  34.014  0.00  0.00    +0.000 A 
ATOM      5  O   UNL     1      33.451   3.296  32.694  0.00  0.00    +0.000 OA
ATOM      6  C   UNL     1      33.603   1.627  34.391  0.00  0.00    +0.000 A 
ATOM      7  C   UNL     1      33.280   0.636  33.492  0.00  0.00    +0.000 A 
ATOM      8  C   UNL     1      33.213  -0.661  33.956  0.00  0.00    +0.000 A 
ATOM      9  C   UNL     1      33.456  -0.994  35.272  0.00  0.00    +0.000 A 
ATOM     10  O   UNL     1      33.387  -2.198  35.676  0.00  0.00    +0.000 OA
ATOM     11  O   UNL     1      33.759  -0.017  36.093  0.00  0.00    +0.000 OA
ATOM     12  C   UNL     1      33.838   1.249  35.703  0.00  0.00    +0.000 A 
ATOM     13  C   UNL     1      34.101   5.332  34.483  0.00  0.00    +0.000 C 
ATOM     14  C   UNL     1      34.417   6.246  35.400  0.00  0.00    +0.000 C 
ATOM     15  C   UNL     1      34.683   5.942  36.807  0.00  0.00    +0.000 C 
ATOM     16  C   UNL     1      36.124   6.366  37.098  0.00  0.00    +0.000 C 
ATOM     17  C   UNL     1      33.789   6.721  37.750  0.00  0.00    +0.000 C 
ATOM     18  O   UNL     1      34.581   4.590  37.142  0.00  0.00    +0.000 OA
ENDROOT
BRANCH   1  19
ATOM     19  C   UNL     1      34.419   1.896  37.999  0.00  0.00    +0.000 C 
ATOM     20  C   UNL     1      34.049   3.070  38.903  0.00  0.00    +0.000 C 
ATOM     21  C   UNL     1      33.721   0.639  38.406  0.00  0.00    +0.000 C 
BRANCH  19  23
ATOM     22  C   UNL     1      36.425   0.504  38.237  0.00  0.00    +0.000 C 
ATOM     23  C   UNL     1      35.912   1.733  38.123  0.00  0.00    +0.000 C 
ENDBRANCH  19  23
ENDBRANCH   1  19
TORSDOF 2
ENDMDL
MODEL 8
REMARK VINA RESULT:      -6.6     21.181     23.564
REMARK  Name = 
REMARK  2 active torsions:
REMARK  status: ('A' for Active; 'I' for Inactive)
REMARK    1  A    between atoms: C_2  and  C_3
REMARK    2  A    between atoms: C_3  and  C_6
REMARK                            x       y       z     vdW  Elec       q    Type
REMARK                         _______ _______ _______ _____ _____    ______ ____
ROOT
ATOM      1  C   UNL     1      21.104  -8.967  26.013  0.00  0.00    +0.000 A 
ATOM      2  C   UNL     1      19.881  -8.610  26.536  0.00  0.00    +0.000 A 
ATOM      3  C   UNL     1      19.437  -7.315  26.361  0.00  0.00    +0.000 A 
ATOM      4  C   UNL     1      20.235  -6.430  25.670  0.00  0.00    +0.000 A 
ATOM      5  O   UNL     1      19.804  -5.127  25.485  0.00  0.00    +0.000 OA
ATOM      6  C   UNL     1      21.461  -6.811  25.151  0.00  0.00    +0.000 A 
ATOM      7  C   UNL     1      22.263  -5.931  24.459  0.00  0.00    +0.000 A 
ATOM      8  C   UNL     1      23.468  -6.397  23.978  0.00  0.00    +0.000 A 
ATOM      9  C   UNL     1      23.893  -7.695  24.166  0.00  0.00    +0.000 A 
ATOM     10  O   UNL     1      25.009  -8.101  23.712  0.00  0.00    +0.000 OA
ATOM     11  O   UNL     1      23.096  -8.497  24.830  0.00  0.00    +0.000 OA
ATOM     12  C   UNL     1      21.925  -8.105  25.316  0.00  0.00    +0.000 A 
ATOM     13  C   UNL     1      18.152  -6.877  26.892  0.00  0.00    +0.000 C 
ATOM     14  C   UNL     1      17.421  -7.774  27.552  0.00  0.00    +0.000 C 
ATOM     15  C   UNL     1      17.828  -9.163  27.776  0.00  0.00    +0.000 C 
ATOM     16  C   UNL     1      17.928  -9.367  29.290  0.00  0.00    +0.000 C 
ATOM     17  C   UNL     1      16.811 -10.158  27.257  0.00  0.00    +0.000 C 
ATOM     18  O   UNL     1      19.071  -9.501  27.237  0.00  0.00    +0.000 OA
ENDROOT
BRANCH   1  19
ATOM     19  C   UNL     1      21.565 -10.363  26.211  0.00  0.00    +0.000 C 
ATOM     20  C   UNL     1      20.952 -11.259  25.138  0.00  0.00    +0.000 C 
ATOM     21  C   UNL     1      23.055 -10.476  26.246  0.00  0.00    +0.000 C 
BRANCH  19  23
ATOM     22  C   UNL     1      21.779 -11.328  28.456  0.00  0.00    +0.000 C 
ATOM     23  C   UNL     1      20.972 -10.819  27.519  0.00  0.00    +0.000 C 
ENDBRANCH  19  23
ENDBRANCH   1  19
TORSDOF 2
ENDMDL
MODEL 9
REMARK VINA RESULT:      -6.6     18.380     21.549
REMARK  Name = 
REMARK  2 active torsions:
REMARK  status: ('A' for Active; 'I' for Inactive)
REMARK    1  A    between atoms: C_2  and  C_3
REMARK    2  A    between atoms: C_3  and  C_6
REMARK                            x       y       z     vdW  Elec       q    Type
REMARK                         _______ _______ _______ _____ _____    ______ ____
ROOT
ATOM      1  C   UNL     1      28.408  23.177  27.722  0.00  0.00    +0.000 A 
ATOM      2  C   UNL     1      28.176  23.372  26.379  0.00  0.00    +0.000 A 
ATOM      3  C   UNL     1      29.227  23.223  25.496  0.00  0.00    +0.000 A 
ATOM      4  C   UNL     1      30.466  22.885  25.993  0.00  0.00    +0.000 A 
ATOM      5  O   UNL     1      31.530  22.731  25.121  0.00  0.00    +0.000 OA
ATOM      6  C   UNL     1      30.677  22.693  27.348  0.00  0.00    +0.000 A 
ATOM      7  C   UNL     1      31.913  22.355  27.851  0.00  0.00    +0.000 A 
ATOM      8  C   UNL     1      32.031  22.184  29.214  0.00  0.00    +0.000 A 
ATOM      9  C   UNL     1      30.967  22.339  30.079  0.00  0.00    +0.000 A 
ATOM     10  O   UNL     1      31.102  22.175  31.333  0.00  0.00    +0.000 OA
ATOM     11  O   UNL     1      29.809  22.661  29.554  0.00  0.00    +0.000 OA
ATOM     12  C   UNL     1      29.636  22.838  28.250  0.00  0.00    +0.000 A 
ATOM     13  C   UNL     1      29.044  23.416  24.062  0.00  0.00    +0.000 C 
ATOM     14  C   UNL     1      27.825  23.742  23.636  0.00  0.00    +0.000 C 
ATOM     15  C   UNL     1      26.666  23.917  24.513  0.00  0.00    +0.000 C 
ATOM     16  C   UNL     1      26.196  25.366  24.361  0.00  0.00    +0.000 C 
ATOM     17  C   UNL     1      25.502  23.028  24.126  0.00  0.00    +0.000 C 
ATOM     18  O   UNL     1      26.925  23.715  25.871  0.00  0.00    +0.000 OA
ENDROOT
BRANCH   1  19
ATOM     19  C   UNL     1      27.268  23.342  28.656  0.00  0.00    +0.000 C 
ATOM     20  C   UNL     1      27.656  24.314  29.768  0.00  0.00    +0.000 C 
ATOM     21  C   UNL     1      26.013  23.763  27.962  0.00  0.00    +0.000 C 
BRANCH  19  23
ATOM     22  C   UNL     1      26.369  21.940  30.457  0.00  0.00    +0.000 C 
ATOM     23  C   UNL     1      27.076  22.005  29.325  0.00  0.00    +0.000 C 
ENDBRANCH  19  23
ENDBRANCH   1  19
TORSDOF 2
ENDMDL
MODEL 10
REMARK VINA RESULT:      -6.5     21.181     23.595
REMARK  Name = 
REMARK  2 active torsions:
REMARK  status: ('A' for Active; 'I' for Inactive)
REMARK    1  A    between atoms: C_2  and  C_3
REMARK    2  A    between atoms: C_3  and  C_6
REMARK                            x       y       z     vdW  Elec       q    Type
REMARK                         _______ _______ _______ _____ _____    ______ ____
ROOT
ATOM      1  C   UNL     1      20.188  -9.024  26.786  0.00  0.00    +0.000 A 
ATOM      2  C   UNL     1      21.374  -9.518  26.291  0.00  0.00    +0.000 A 
ATOM      3  C   UNL     1      22.175  -8.686  25.534  0.00  0.00    +0.000 A 
ATOM      4  C   UNL     1      21.755  -7.394  25.304  0.00  0.00    +0.000 A 
ATOM      5  O   UNL     1      22.546  -6.546  24.548  0.00  0.00    +0.000 OA
ATOM      6  C   UNL     1      20.559  -6.918  25.813  0.00  0.00    +0.000 A 
ATOM      7  C   UNL     1      20.134  -5.628  25.587  0.00  0.00    +0.000 A 
ATOM      8  C   UNL     1      18.928  -5.240  26.132  0.00  0.00    +0.000 A 
ATOM      9  C   UNL     1      18.144  -6.089  26.884  0.00  0.00    +0.000 A 
ATOM     10  O   UNL     1      17.035  -5.707  27.377  0.00  0.00    +0.000 OA
ATOM     11  O   UNL     1      18.589  -7.308  27.073  0.00  0.00    +0.000 OA
ATOM     12  C   UNL     1      19.741  -7.737  26.574  0.00  0.00    +0.000 A 
ATOM     13  C   UNL     1      23.442  -9.150  24.982  0.00  0.00    +0.000 C 
ATOM     14  C   UNL     1      23.799 -10.408  25.235  0.00  0.00    +0.000 C 
ATOM     15  C   UNL     1      23.001 -11.346  26.028  0.00  0.00    +0.000 C 
ATOM     16  C   UNL     1      22.635 -12.516  25.111  0.00  0.00    +0.000 C 
ATOM     17  C   UNL     1      23.771 -11.920  27.199  0.00  0.00    +0.000 C 
ATOM     18  O   UNL     1      21.803 -10.824  26.519  0.00  0.00    +0.000 OA
ENDROOT
BRANCH   1  19
ATOM     19  C   UNL     1      19.341  -9.933  27.596  0.00  0.00    +0.000 C 
ATOM     20  C   UNL     1      18.361  -9.109  28.428  0.00  0.00    +0.000 C 
ATOM     21  C   UNL     1      18.639 -10.958  26.765  0.00  0.00    +0.000 C 
BRANCH  19  23
ATOM     22  C   UNL     1      20.371 -10.093  29.816  0.00  0.00    +0.000 C 
ATOM     23  C   UNL     1      20.264 -10.598  28.584  0.00  0.00    +0.000 C 
ENDBRANCH  19  23
ENDBRANCH   1  19
TORSDOF 2
ENDMDL
