MODEL 1
REMARK VINA RESULT:      -7.0      0.000      0.000
REMARK  Name = 
REMARK  1 active torsions:
REMARK  status: ('A' for Active; 'I' for Inactive)
REMARK    1  A    between atoms: C_4  and  C_5
REMARK                            x       y       z     vdW  Elec       q    Type
REMARK                         _______ _______ _______ _____ _____    ______ ____
ROOT
ATOM      1  O   UNL     1      33.917   0.980  37.680  0.00  0.00    +0.000 OA
ATOM      2  C   UNL     1      33.677   0.728  36.485  0.00  0.00    +0.000 C 
ATOM      3  N   UNL     1      33.349  -0.576  36.113  0.00  0.00    +0.000 NA
ATOM      4  C   UNL     1      32.196  -0.654  34.995  0.00  0.00    +0.000 C 
ATOM      5  N   UNL     1      33.124   0.015  33.880  0.00  0.00    +0.000 NA
ATOM      6  C   UNL     1      33.456   1.384  34.202  0.00  0.00    +0.000 A 
ATOM      7  S   UNL     1      33.622   2.842  33.282  0.00  0.00    +0.000 S 
ATOM      8  C   UNL     1      34.042   3.912  34.529  0.00  0.00    +0.000 A 
ATOM      9  C   UNL     1      34.045   3.116  35.640  0.00  0.00    +0.000 A 
ATOM     10  C   UNL     1      33.739   1.804  35.458  0.00  0.00    +0.000 A 
ATOM     11  C   UNL     1      34.408   3.915  36.894  0.00  0.00    +0.000 C 
ATOM     12  C   UNL     1      33.501   5.129  36.886  0.00  0.00    +0.000 C 
ATOM     13  C   UNL     1      33.925   6.059  35.780  0.00  0.00    +0.000 C 
ATOM     14  C   UNL     1      34.352   5.367  34.538  0.00  0.00    +0.000 C 
ENDROOT
BRANCH   4  15
ATOM     15  C   UNL     1      32.561  -2.176  34.537  0.00  0.00    +0.000 A 
ATOM     16  C   UNL     1      33.476  -2.307  33.543  0.00  0.00    +0.000 A 
ATOM     17  C   UNL     1      33.773  -3.602  33.166  0.00  0.00    +0.000 A 
ATOM     18  N   UNL     1      33.188  -4.654  33.752  0.00  0.00    +0.000 NA
ATOM     19  C   UNL     1      32.290  -4.475  34.727  0.00  0.00    +0.000 A 
ATOM     20  C   UNL     1      31.961  -3.202  35.138  0.00  0.00    +0.000 A 
ENDBRANCH   4  15
TORSDOF 1
ENDMDL
MODEL 2
REMARK VINA RESULT:      -6.5     21.647     24.408
REMARK  Name = 
REMARK  1 active torsions:
REMARK  status: ('A' for Active; 'I' for Inactive)
REMARK    1  A    between atoms: C_4  and  C_5
REMARK                            x       y       z     vdW  Elec       q    Type
REMARK                         _______ _______ _______ _____ _____    ______ ____
ROOT
ATOM      1  O   UNL     1      31.331  22.675  25.232  0.00  0.00    +0.000 OA
ATOM      2  C   UNL     1      30.520  22.705  26.176  0.00  0.00    +0.000 C 
ATOM      3  N   UNL     1      30.982  22.546  27.482  0.00  0.00    +0.000 NA
ATOM      4  C   UNL     1      30.244  23.500  28.546  0.00  0.00    +0.000 C 
ATOM      5  N   UNL     1      28.846  22.747  28.366  0.00  0.00    +0.000 NA
ATOM      6  C   UNL     1      28.305  22.919  27.037  0.00  0.00    +0.000 A 
ATOM      7  S   UNL     1      26.715  23.161  26.394  0.00  0.00    +0.000 S 
ATOM      8  C   UNL     1      27.090  23.237  24.742  0.00  0.00    +0.000 A 
ATOM      9  C   UNL     1      28.447  23.073  24.719  0.00  0.00    +0.000 A 
ATOM     10  C   UNL     1      29.068  22.909  25.918  0.00  0.00    +0.000 A 
ATOM     11  C   UNL     1      28.987  23.113  23.287  0.00  0.00    +0.000 C 
ATOM     12  C   UNL     1      28.406  24.367  22.664  0.00  0.00    +0.000 C 
ATOM     13  C   UNL     1      26.929  24.175  22.444  0.00  0.00    +0.000 C 
ATOM     14  C   UNL     1      26.248  23.429  23.532  0.00  0.00    +0.000 C 
ENDROOT
BRANCH   4  15
ATOM     15  C   UNL     1      30.677  22.610  29.842  0.00  0.00    +0.000 A 
ATOM     16  C   UNL     1      29.812  22.602  30.889  0.00  0.00    +0.000 A 
ATOM     17  C   UNL     1      30.194  21.845  31.978  0.00  0.00    +0.000 A 
ATOM     18  N   UNL     1      31.348  21.166  31.990  0.00  0.00    +0.000 NA
ATOM     19  C   UNL     1      32.169  21.205  30.935  0.00  0.00    +0.000 A 
ATOM     20  C   UNL     1      31.831  21.946  29.824  0.00  0.00    +0.000 A 
ENDBRANCH   4  15
TORSDOF 1
ENDMDL
MODEL 3
REMARK VINA RESULT:      -6.3     15.465     16.463
REMARK  Name = 
REMARK  1 active torsions:
REMARK  status: ('A' for Active; 'I' for Inactive)
REMARK    1  A    between atoms: C_4  and  C_5
REMARK                            x       y       z     vdW  Elec       q    Type
REMARK                         _______ _______ _______ _____ _____    ______ ____
ROOT
ATOM      1  O   UNL     1      17.368   4.607  42.834  0.00  0.00    +0.000 OA
ATOM      2  C   UNL     1      18.273   4.870  42.020  0.00  0.00    +0.000 C 
ATOM      3  N   UNL     1      19.251   3.913  41.750  0.00  0.00    +0.000 NA
ATOM      4  C   UNL     1      19.679   3.851  40.201  0.00  0.00    +0.000 C 
ATOM      5  N   UNL     1      20.337   5.306  40.246  0.00  0.00    +0.000 NA
ATOM      6  C   UNL     1      19.355   6.338  40.482  0.00  0.00    +0.000 A 
ATOM      7  S   UNL     1      19.115   7.946  39.885  0.00  0.00    +0.000 S 
ATOM      8  C   UNL     1      17.715   8.359  40.748  0.00  0.00    +0.000 A 
ATOM      9  C   UNL     1      17.457   7.237  41.485  0.00  0.00    +0.000 A 
ATOM     10  C   UNL     1      18.316   6.193  41.339  0.00  0.00    +0.000 A 
ATOM     11  C   UNL     1      16.205   7.415  42.348  0.00  0.00    +0.000 C 
ATOM     12  C   UNL     1      15.127   7.918  41.409  0.00  0.00    +0.000 C 
ATOM     13  C   UNL     1      15.441   9.335  41.004  0.00  0.00    +0.000 C 
ATOM     14  C   UNL     1      16.886   9.593  40.780  0.00  0.00    +0.000 C 
ENDROOT
BRANCH   4  15
ATOM     15  C   UNL     1      21.091   3.086  40.487  0.00  0.00    +0.000 A 
ATOM     16  C   UNL     1      21.021   1.751  40.722  0.00  0.00    +0.000 A 
ATOM     17  C   UNL     1      22.225   1.120  40.963  0.00  0.00    +0.000 A 
ATOM     18  N   UNL     1      23.382   1.793  40.963  0.00  0.00    +0.000 NA
ATOM     19  C   UNL     1      23.401   3.110  40.727  0.00  0.00    +0.000 A 
ATOM     20  C   UNL     1      22.225   3.784  40.481  0.00  0.00    +0.000 A 
ENDBRANCH   4  15
TORSDOF 1
ENDMDL
MODEL 4
REMARK VINA RESULT:      -6.2     24.845     27.530
REMARK  Name = 
REMARK  1 active torsions:
REMARK  status: ('A' for Active; 'I' for Inactive)
REMARK    1  A    between atoms: C_4  and  C_5
REMARK                            x       y       z     vdW  Elec       q    Type
REMARK                         _______ _______ _______ _____ _____    ______ ____
ROOT
ATOM      1  O   UNL     1      26.144  23.437  28.147  0.00  0.00    +0.000 OA
ATOM      2  C   UNL     1      25.762  24.094  27.160  0.00  0.00    +0.000 C 
ATOM      3  N   UNL     1      24.609  24.872  27.261  0.00  0.00    +0.000 NA
ATOM      4  C   UNL     1      24.722  26.287  26.504  0.00  0.00    +0.000 C 
ATOM      5  N   UNL     1      24.791  25.598  25.064  0.00  0.00    +0.000 NA
ATOM      6  C   UNL     1      25.992  24.812  24.897  0.00  0.00    +0.000 A 
ATOM      7  S   UNL     1      27.089  24.534  23.586  0.00  0.00    +0.000 S 
ATOM      8  C   UNL     1      28.168  23.467  24.346  0.00  0.00    +0.000 A 
ATOM      9  C   UNL     1      27.655  23.347  25.607  0.00  0.00    +0.000 A 
ATOM     10  C   UNL     1      26.524  24.050  25.883  0.00  0.00    +0.000 A 
ATOM     11  C   UNL     1      28.506  22.406  26.464  0.00  0.00    +0.000 C 
ATOM     12  C   UNL     1      29.934  22.892  26.315  0.00  0.00    +0.000 C 
ATOM     13  C   UNL     1      30.420  22.585  24.923  0.00  0.00    +0.000 C 
ATOM     14  C   UNL     1      29.393  22.774  23.868  0.00  0.00    +0.000 C 
ENDROOT
BRANCH   4  15
ATOM     15  C   UNL     1      23.110  26.524  26.430  0.00  0.00    +0.000 A 
ATOM     16  C   UNL     1      22.411  26.299  27.573  0.00  0.00    +0.000 A 
ATOM     17  C   UNL     1      21.048  26.503  27.492  0.00  0.00    +0.000 A 
ATOM     18  N   UNL     1      20.463  26.897  26.354  0.00  0.00    +0.000 NA
ATOM     19  C   UNL     1      21.194  27.105  25.253  0.00  0.00    +0.000 A 
ATOM     20  C   UNL     1      22.559  26.915  25.283  0.00  0.00    +0.000 A 
ENDBRANCH   4  15
TORSDOF 1
ENDMDL
MODEL 5
REMARK VINA RESULT:      -6.1      3.429      7.696
REMARK  Name = 
REMARK  1 active torsions:
REMARK  status: ('A' for Active; 'I' for Inactive)
REMARK    1  A    between atoms: C_4  and  C_5
REMARK                            x       y       z     vdW  Elec       q    Type
REMARK                         _______ _______ _______ _____ _____    ______ ____
ROOT
ATOM      1  O   UNL     1      33.536   3.147  33.061  0.00  0.00    +0.000 OA
ATOM      2  C   UNL     1      33.833   3.546  34.203  0.00  0.00    +0.000 C 
ATOM      3  N   UNL     1      34.103   4.899  34.407  0.00  0.00    +0.000 NA
ATOM      4  C   UNL     1      33.513   5.470  35.790  0.00  0.00    +0.000 C 
ATOM      5  N   UNL     1      34.504   4.576  36.669  0.00  0.00    +0.000 NA
ATOM      6  C   UNL     1      34.235   3.164  36.523  0.00  0.00    +0.000 A 
ATOM      7  S   UNL     1      34.232   1.810  37.602  0.00  0.00    +0.000 S 
ATOM      8  C   UNL     1      33.809   0.583  36.510  0.00  0.00    +0.000 A 
ATOM      9  C   UNL     1      33.677   1.250  35.324  0.00  0.00    +0.000 A 
ATOM     10  C   UNL     1      33.901   2.591  35.342  0.00  0.00    +0.000 A 
ATOM     11  C   UNL     1      33.290   0.295  34.191  0.00  0.00    +0.000 C 
ATOM     12  C   UNL     1      32.103  -0.493  34.705  0.00  0.00    +0.000 C 
ATOM     13  C   UNL     1      32.563  -1.442  35.780  0.00  0.00    +0.000 C 
ATOM     14  C   UNL     1      33.603  -0.880  36.678  0.00  0.00    +0.000 C 
ENDROOT
BRANCH   4  15
ATOM     15  C   UNL     1      34.492   6.774  35.820  0.00  0.00    +0.000 A 
ATOM     16  C   UNL     1      35.708   6.634  35.232  0.00  0.00    +0.000 A 
ATOM     17  C   UNL     1      36.524   7.747  35.268  0.00  0.00    +0.000 A 
ATOM     18  N   UNL     1      36.131   8.887  35.849  0.00  0.00    +0.000 NA
ATOM     19  C   UNL     1      34.923   8.977  36.417  0.00  0.00    +0.000 A 
ATOM     20  C   UNL     1      34.072   7.893  36.407  0.00  0.00    +0.000 A 
ENDBRANCH   4  15
TORSDOF 1
ENDMDL
MODEL 6
REMARK VINA RESULT:      -6.1     15.510     17.683
REMARK  Name = 
REMARK  1 active torsions:
REMARK  status: ('A' for Active; 'I' for Inactive)
REMARK    1  A    between atoms: C_4  and  C_5
REMARK                            x       y       z     vdW  Elec       q    Type
REMARK                         _______ _______ _______ _____ _____    ______ ____
ROOT
ATOM      1  O   UNL     1      18.027  11.492  38.181  0.00  0.00    +0.000 OA
ATOM      2  C   UNL     1      19.029  10.804  38.452  0.00  0.00    +0.000 C 
ATOM      3  N   UNL     1      20.275  11.181  37.952  0.00  0.00    +0.000 NA
ATOM      4  C   UNL     1      21.477  10.972  38.999  0.00  0.00    +0.000 C 
ATOM      5  N   UNL     1      21.333   9.381  38.964  0.00  0.00    +0.000 NA
ATOM      6  C   UNL     1      20.072   8.939  39.513  0.00  0.00    +0.000 A 
ATOM      7  S   UNL     1      19.578   7.607  40.503  0.00  0.00    +0.000 S 
ATOM      8  C   UNL     1      17.917   7.933  40.602  0.00  0.00    +0.000 A 
ATOM      9  C   UNL     1      17.775   9.074  39.863  0.00  0.00    +0.000 A 
ATOM     10  C   UNL     1      18.902   9.588  39.301  0.00  0.00    +0.000 A 
ATOM     11  C   UNL     1      16.316   9.538  39.833  0.00  0.00    +0.000 C 
ATOM     12  C   UNL     1      15.861   9.560  41.278  0.00  0.00    +0.000 C 
ATOM     13  C   UNL     1      15.737   8.146  41.781  0.00  0.00    +0.000 C 
ATOM     14  C   UNL     1      16.798   7.233  41.287  0.00  0.00    +0.000 C 
ENDROOT
BRANCH   4  15
ATOM     15  C   UNL     1      22.646  10.998  37.862  0.00  0.00    +0.000 A 
ATOM     16  C   UNL     1      23.694  11.831  38.088  0.00  0.00    +0.000 A 
ATOM     17  C   UNL     1      24.674  11.841  37.115  0.00  0.00    +0.000 A 
ATOM     18  N   UNL     1      24.585  11.074  36.022  0.00  0.00    +0.000 NA
ATOM     19  C   UNL     1      23.532  10.269  35.842  0.00  0.00    +0.000 A 
ATOM     20  C   UNL     1      22.528  10.223  36.786  0.00  0.00    +0.000 A 
ENDBRANCH   4  15
TORSDOF 1
ENDMDL
MODEL 7
REMARK VINA RESULT:      -6.0     14.071     16.137
REMARK  Name = 
REMARK  1 active torsions:
REMARK  status: ('A' for Active; 'I' for Inactive)
REMARK    1  A    between atoms: C_4  and  C_5
REMARK                            x       y       z     vdW  Elec       q    Type
REMARK                         _______ _______ _______ _____ _____    ______ ____
ROOT
ATOM      1  O   UNL     1      23.253   8.833  36.125  0.00  0.00    +0.000 OA
ATOM      2  C   UNL     1      22.520   9.678  36.672  0.00  0.00    +0.000 C 
ATOM      3  N   UNL     1      21.135   9.566  36.547  0.00  0.00    +0.000 NA
ATOM      4  C   UNL     1      20.337   9.934  37.894  0.00  0.00    +0.000 C 
ATOM      5  N   UNL     1      20.770  11.470  37.822  0.00  0.00    +0.000 NA
ATOM      6  C   UNL     1      22.195  11.641  37.989  0.00  0.00    +0.000 A 
ATOM      7  S   UNL     1      23.193  12.801  38.799  0.00  0.00    +0.000 S 
ATOM      8  C   UNL     1      24.720  12.169  38.420  0.00  0.00    +0.000 A 
ATOM      9  C   UNL     1      24.426  11.065  37.670  0.00  0.00    +0.000 A 
ATOM     10  C   UNL     1      23.111  10.800  37.452  0.00  0.00    +0.000 A 
ATOM     11  C   UNL     1      25.701  10.342  37.223  0.00  0.00    +0.000 C 
ATOM     12  C   UNL     1      26.529  10.156  38.478  0.00  0.00    +0.000 C 
ATOM     13  C   UNL     1      27.059  11.492  38.928  0.00  0.00    +0.000 C 
ATOM     14  C   UNL     1      26.099  12.611  38.759  0.00  0.00    +0.000 C 
ENDROOT
BRANCH   4  15
ATOM     15  C   UNL     1      18.915  10.188  37.138  0.00  0.00    +0.000 A 
ATOM     16  C   UNL     1      18.051  11.044  37.742  0.00  0.00    +0.000 A 
ATOM     17  C   UNL     1      16.852  11.247  37.090  0.00  0.00    +0.000 A 
ATOM     18  N   UNL     1      16.569  10.633  35.935  0.00  0.00    +0.000 NA
ATOM     19  C   UNL     1      17.452   9.797  35.377  0.00  0.00    +0.000 A 
ATOM     20  C   UNL     1      18.663   9.562  35.991  0.00  0.00    +0.000 A 
ENDBRANCH   4  15
TORSDOF 1
ENDMDL
MODEL 8
REMARK VINA RESULT:      -5.9     17.827     19.744
REMARK  Name = 
REMARK  1 active torsions:
REMARK  status: ('A' for Active; 'I' for Inactive)
REMARK    1  A    between atoms: C_4  and  C_5
REMARK                            x       y       z     vdW  Elec       q    Type
REMARK                         _______ _______ _______ _____ _____    ______ ____
ROOT
ATOM      1  O   UNL     1      19.414  13.372  37.628  0.00  0.00    +0.000 OA
ATOM      2  C   UNL     1      18.592  12.437  37.661  0.00  0.00    +0.000 C 
ATOM      3  N   UNL     1      17.308  12.636  37.154  0.00  0.00    +0.000 NA
ATOM      4  C   UNL     1      16.732  11.368  36.350  0.00  0.00    +0.000 C 
ATOM      5  N   UNL     1      16.666  10.466  37.668  0.00  0.00    +0.000 NA
ATOM      6  C   UNL     1      17.979  10.197  38.207  0.00  0.00    +0.000 A 
ATOM      7  S   UNL     1      18.733   8.821  38.939  0.00  0.00    +0.000 S 
ATOM      8  C   UNL     1      20.267   9.475  39.249  0.00  0.00    +0.000 A 
ATOM      9  C   UNL     1      20.166  10.753  38.776  0.00  0.00    +0.000 A 
ATOM     10  C   UNL     1      18.972  11.118  38.237  0.00  0.00    +0.000 A 
ATOM     11  C   UNL     1      21.476  11.522  38.968  0.00  0.00    +0.000 C 
ATOM     12  C   UNL     1      22.562  10.631  38.398  0.00  0.00    +0.000 C 
ATOM     13  C   UNL     1      22.754   9.441  39.300  0.00  0.00    +0.000 C 
ATOM     14  C   UNL     1      21.492   8.904  39.869  0.00  0.00    +0.000 C 
ENDROOT
BRANCH   4  15
ATOM     15  C   UNL     1      15.174  11.838  36.465  0.00  0.00    +0.000 A 
ATOM     16  C   UNL     1      14.762  12.790  35.589  0.00  0.00    +0.000 A 
ATOM     17  C   UNL     1      13.441  13.177  35.701  0.00  0.00    +0.000 A 
ATOM     18  N   UNL     1      12.629  12.640  36.620  0.00  0.00    +0.000 NA
ATOM     19  C   UNL     1      13.081  11.705  37.462  0.00  0.00    +0.000 A 
ATOM     20  C   UNL     1      14.392  11.286  37.390  0.00  0.00    +0.000 A 
ENDBRANCH   4  15
TORSDOF 1
ENDMDL
MODEL 9
REMARK VINA RESULT:      -5.9     33.152     33.801
REMARK  Name = 
REMARK  1 active torsions:
REMARK  status: ('A' for Active; 'I' for Inactive)
REMARK    1  A    between atoms: C_4  and  C_5
REMARK                            x       y       z     vdW  Elec       q    Type
REMARK                         _______ _______ _______ _____ _____    ______ ____
ROOT
ATOM      1  O   UNL     1       9.338  11.456  15.107  0.00  0.00    +0.000 OA
ATOM      2  C   UNL     1       9.524  10.669  14.159  0.00  0.00    +0.000 C 
ATOM      3  N   UNL     1       9.637   9.303  14.416  0.00  0.00    +0.000 NA
ATOM      4  C   UNL     1       8.911   8.381  13.316  0.00  0.00    +0.000 C 
ATOM      5  N   UNL     1       9.938   8.808  12.169  0.00  0.00    +0.000 NA
ATOM      6  C   UNL     1       9.829  10.211  11.838  0.00  0.00    +0.000 A 
ATOM      7  S   UNL     1       9.906  11.122  10.368  0.00  0.00    +0.000 S 
ATOM      8  C   UNL     1       9.679  12.682  10.993  0.00  0.00    +0.000 A 
ATOM      9  C   UNL     1       9.547  12.466  12.336  0.00  0.00    +0.000 A 
ATOM     10  C   UNL     1       9.626  11.178  12.765  0.00  0.00    +0.000 A 
ATOM     11  C   UNL     1       9.329  13.781  13.090  0.00  0.00    +0.000 C 
ATOM     12  C   UNL     1       8.204  14.490  12.365  0.00  0.00    +0.000 C 
ATOM     13  C   UNL     1       8.699  14.968  11.025  0.00  0.00    +0.000 C 
ATOM     14  C   UNL     1       9.620  14.020  10.348  0.00  0.00    +0.000 C 
ENDROOT
BRANCH   4  15
ATOM     15  C   UNL     1       9.743   7.033  13.706  0.00  0.00    +0.000 A 
ATOM     16  C   UNL     1      10.838   7.202  14.491  0.00  0.00    +0.000 A 
ATOM     17  C   UNL     1      11.531   6.052  14.810  0.00  0.00    +0.000 A 
ATOM     18  N   UNL     1      11.139   4.851  14.368  0.00  0.00    +0.000 NA
ATOM     19  C   UNL     1      10.053   4.734  13.596  0.00  0.00    +0.000 A 
ATOM     20  C   UNL     1       9.328   5.854  13.250  0.00  0.00    +0.000 A 
ENDBRANCH   4  15
TORSDOF 1
ENDMDL
MODEL 10
REMARK VINA RESULT:      -5.7     22.643     25.262
REMARK  Name = 
REMARK  1 active torsions:
REMARK  status: ('A' for Active; 'I' for Inactive)
REMARK    1  A    between atoms: C_4  and  C_5
REMARK                            x       y       z     vdW  Elec       q    Type
REMARK                         _______ _______ _______ _____ _____    ______ ____
ROOT
ATOM      1  O   UNL     1      32.837  23.800  25.810  0.00  0.00    +0.000 OA
ATOM      2  C   UNL     1      31.601  23.659  25.754  0.00  0.00    +0.000 C 
ATOM      3  N   UNL     1      30.940  23.886  24.547  0.00  0.00    +0.000 NA
ATOM      4  C   UNL     1      29.752  22.841  24.259  0.00  0.00    +0.000 C 
ATOM      5  N   UNL     1      28.872  23.389  25.475  0.00  0.00    +0.000 NA
ATOM      6  C   UNL     1      29.498  23.138  26.753  0.00  0.00    +0.000 A 
ATOM      7  S   UNL     1      28.921  22.673  28.318  0.00  0.00    +0.000 S 
ATOM      8  C   UNL     1      30.392  22.645  29.162  0.00  0.00    +0.000 A 
ATOM      9  C   UNL     1      31.308  22.998  28.210  0.00  0.00    +0.000 A 
ATOM     10  C   UNL     1      30.832  23.252  26.962  0.00  0.00    +0.000 A 
ATOM     11  C   UNL     1      32.725  23.030  28.788  0.00  0.00    +0.000 C 
ATOM     12  C   UNL     1      32.908  21.705  29.501  0.00  0.00    +0.000 C 
ATOM     13  C   UNL     1      32.056  21.687  30.743  0.00  0.00    +0.000 C 
ATOM     14  C   UNL     1      30.730  22.332  30.575  0.00  0.00    +0.000 C 
ENDROOT
BRANCH   4  15
ATOM     15  C   UNL     1      29.010  23.787  23.157  0.00  0.00    +0.000 A 
ATOM     16  C   UNL     1      29.772  24.745  22.569  0.00  0.00    +0.000 A 
ATOM     17  C   UNL     1      29.129  25.538  21.640  0.00  0.00    +0.000 A 
ATOM     18  N   UNL     1      27.834  25.364  21.346  0.00  0.00    +0.000 NA
ATOM     19  C   UNL     1      27.123  24.407  21.953  0.00  0.00    +0.000 A 
ATOM     20  C   UNL     1      27.722  23.590  22.888  0.00  0.00    +0.000 A 
ENDBRANCH   4  15
TORSDOF 1
ENDMDL
