MODEL 1
REMARK VINA RESULT:      -5.8      0.000      0.000
REMARK  Name = 
REMARK  4 active torsions:
REMARK  status: ('A' for Active; 'I' for Inactive)
REMARK    1  A    between atoms: C_5  and  C_6
REMARK    2  A    between atoms: C_6  and  C_7
REMARK    3  A    between atoms: C_6  and  C_9
REMARK    4  A    between atoms: C_6  and  C_11
REMARK                            x       y       z     vdW  Elec       q    Type
REMARK                         _______ _______ _______ _____ _____    ______ ____
ROOT
ATOM      1  C   UNL     1      19.189  10.357  38.043  0.00  0.00    +0.000 C 
ENDROOT
BRANCH   1   6
ATOM      2  C   UNL     1      16.371   7.116  41.966  0.00  0.00    +0.000 C 
ATOM      3  C   UNL     1      17.101   7.936  40.959  0.00  0.00    +0.000 A 
ATOM      4  C   UNL     1      16.601   9.160  40.537  0.00  0.00    +0.000 A 
ATOM      5  C   UNL     1      17.276   9.921  39.607  0.00  0.00    +0.000 A 
ATOM      6  C   UNL     1      18.475   9.506  39.051  0.00  0.00    +0.000 A 
ATOM      7  C   UNL     1      18.974   8.290  39.470  0.00  0.00    +0.000 A 
ATOM      8  C   UNL     1      18.298   7.531  40.399  0.00  0.00    +0.000 A 
ENDBRANCH   1   6
BRANCH   1   9
ATOM      9  C   UNL     1      18.372  10.438  36.825  0.00  0.00    +0.000 A 
ATOM     10  C   UNL     1      17.649  11.568  36.554  0.00  0.00    +0.000 A 
ATOM     11  C   UNL     1      16.858  11.671  35.404  0.00  0.00    +0.000 A 
ATOM     12  C   UNL     1      16.836  10.581  34.554  0.00  0.00    +0.000 A 
ATOM     13  C   UNL     1      16.018  10.632  33.321  0.00  0.00    +0.000 C 
ATOM     14  C   UNL     1      17.549   9.429  34.792  0.00  0.00    +0.000 A 
ATOM     15  C   UNL     1      18.316   9.386  35.950  0.00  0.00    +0.000 A 
ENDBRANCH   1   9
BRANCH   1  16
ATOM     16  C   UNL     1      19.495  11.723  38.619  0.00  0.00    +0.000 C 
ATOM     17  O   UNL     1      20.218  11.643  39.795  0.00  0.00    +0.000 OA
ENDBRANCH   1  16
BRANCH   1  18
ATOM     18  C   UNL     1      20.495   9.663  37.691  0.00  0.00    +0.000 C 
ATOM     19  O   UNL     1      21.336  10.640  37.109  0.00  0.00    +0.000 OA
ENDBRANCH   1  18
TORSDOF 4
ENDMDL
MODEL 2
REMARK VINA RESULT:      -5.5     22.110     23.806
REMARK  Name = 
REMARK  4 active torsions:
REMARK  status: ('A' for Active; 'I' for Inactive)
REMARK    1  A    between atoms: C_5  and  C_6
REMARK    2  A    between atoms: C_6  and  C_7
REMARK    3  A    between atoms: C_6  and  C_9
REMARK    4  A    between atoms: C_6  and  C_11
REMARK                            x       y       z     vdW  Elec       q    Type
REMARK                         _______ _______ _______ _____ _____    ______ ____
ROOT
ATOM      1  C   UNL     1      28.608  24.786  22.830  0.00  0.00    +0.000 C 
ENDROOT
BRANCH   1   6
ATOM      2  C   UNL     1      33.472  24.552  26.012  0.00  0.00    +0.000 C 
ATOM      3  C   UNL     1      32.228  24.624  25.196  0.00  0.00    +0.000 A 
ATOM      4  C   UNL     1      31.594  23.471  24.756  0.00  0.00    +0.000 A 
ATOM      5  C   UNL     1      30.442  23.537  24.003  0.00  0.00    +0.000 A 
ATOM      6  C   UNL     1      29.864  24.746  23.649  0.00  0.00    +0.000 A 
ATOM      7  C   UNL     1      30.493  25.894  24.086  0.00  0.00    +0.000 A 
ATOM      8  C   UNL     1      31.644  25.826  24.839  0.00  0.00    +0.000 A 
ENDBRANCH   1   6
BRANCH   1   9
ATOM      9  C   UNL     1      27.596  25.569  23.550  0.00  0.00    +0.000 A 
ATOM     10  C   UNL     1      27.070  25.102  24.725  0.00  0.00    +0.000 A 
ATOM     11  C   UNL     1      26.101  25.824  25.431  0.00  0.00    +0.000 A 
ATOM     12  C   UNL     1      25.693  27.029  24.888  0.00  0.00    +0.000 A 
ATOM     13  C   UNL     1      24.670  27.837  25.589  0.00  0.00    +0.000 C 
ATOM     14  C   UNL     1      26.197  27.530  23.710  0.00  0.00    +0.000 A 
ATOM     15  C   UNL     1      27.158  26.768  23.057  0.00  0.00    +0.000 A 
ENDBRANCH   1   9
BRANCH   1  16
ATOM     16  C   UNL     1      28.888  25.342  21.450  0.00  0.00    +0.000 C 
ATOM     17  O   UNL     1      29.723  24.520  20.716  0.00  0.00    +0.000 OA
ENDBRANCH   1  16
BRANCH   1  18
ATOM     18  C   UNL     1      28.096  23.361  22.697  0.00  0.00    +0.000 C 
ATOM     19  O   UNL     1      26.955  23.410  21.862  0.00  0.00    +0.000 OA
ENDBRANCH   1  18
TORSDOF 4
ENDMDL
MODEL 3
REMARK VINA RESULT:      -5.5     22.257     23.957
REMARK  Name = 
REMARK  4 active torsions:
REMARK  status: ('A' for Active; 'I' for Inactive)
REMARK    1  A    between atoms: C_5  and  C_6
REMARK    2  A    between atoms: C_6  and  C_7
REMARK    3  A    between atoms: C_6  and  C_9
REMARK    4  A    between atoms: C_6  and  C_11
REMARK                            x       y       z     vdW  Elec       q    Type
REMARK                         _______ _______ _______ _____ _____    ______ ____
ROOT
ATOM      1  C   UNL     1      28.648  24.785  22.784  0.00  0.00    +0.000 C 
ENDROOT
BRANCH   1   6
ATOM      2  C   UNL     1      24.654  27.993  25.540  0.00  0.00    +0.000 C 
ATOM      3  C   UNL     1      25.679  27.181  24.827  0.00  0.00    +0.000 A 
ATOM      4  C   UNL     1      26.105  25.961  25.333  0.00  0.00    +0.000 A 
ATOM      5  C   UNL     1      27.052  25.209  24.673  0.00  0.00    +0.000 A 
ATOM      6  C   UNL     1      27.622  25.628  23.482  0.00  0.00    +0.000 A 
ATOM      7  C   UNL     1      27.200  26.840  22.976  0.00  0.00    +0.000 A 
ATOM      8  C   UNL     1      26.253  27.591  23.637  0.00  0.00    +0.000 A 
ENDBRANCH   1   6
BRANCH   1   9
ATOM      9  C   UNL     1      29.853  24.714  23.621  0.00  0.00    +0.000 A 
ATOM     10  C   UNL     1      30.363  23.499  23.993  0.00  0.00    +0.000 A 
ATOM     11  C   UNL     1      31.507  23.400  24.793  0.00  0.00    +0.000 A 
ATOM     12  C   UNL     1      32.099  24.584  25.195  0.00  0.00    +0.000 A 
ATOM     13  C   UNL     1      33.313  24.542  26.042  0.00  0.00    +0.000 C 
ATOM     14  C   UNL     1      31.616  25.822  24.842  0.00  0.00    +0.000 A 
ATOM     15  C   UNL     1      30.479  25.856  24.046  0.00  0.00    +0.000 A 
ENDBRANCH   1   9
BRANCH   1  16
ATOM     16  C   UNL     1      28.088  23.415  22.468  0.00  0.00    +0.000 C 
ATOM     17  O   UNL     1      26.879  23.487  21.801  0.00  0.00    +0.000 OA
ENDBRANCH   1  16
BRANCH   1  18
ATOM     18  C   UNL     1      29.016  25.484  21.485  0.00  0.00    +0.000 C 
ATOM     19  O   UNL     1      29.718  24.542  20.697  0.00  0.00    +0.000 OA
ENDBRANCH   1  18
TORSDOF 4
ENDMDL
MODEL 4
REMARK VINA RESULT:      -5.5      2.441      4.685
REMARK  Name = 
REMARK  4 active torsions:
REMARK  status: ('A' for Active; 'I' for Inactive)
REMARK    1  A    between atoms: C_5  and  C_6
REMARK    2  A    between atoms: C_6  and  C_7
REMARK    3  A    between atoms: C_6  and  C_9
REMARK    4  A    between atoms: C_6  and  C_11
REMARK                            x       y       z     vdW  Elec       q    Type
REMARK                         _______ _______ _______ _____ _____    ______ ____
ROOT
ATOM      1  C   UNL     1      18.076  10.450  37.542  0.00  0.00    +0.000 C 
ENDROOT
BRANCH   1   6
ATOM      2  C   UNL     1      22.066  14.482  38.827  0.00  0.00    +0.000 C 
ATOM      3  C   UNL     1      21.036  13.459  38.497  0.00  0.00    +0.000 A 
ATOM      4  C   UNL     1      21.379  12.124  38.340  0.00  0.00    +0.000 A 
ATOM      5  C   UNL     1      20.427  11.176  38.035  0.00  0.00    +0.000 A 
ATOM      6  C   UNL     1      19.091  11.505  37.871  0.00  0.00    +0.000 A 
ATOM      7  C   UNL     1      18.747  12.831  38.026  0.00  0.00    +0.000 A 
ATOM      8  C   UNL     1      19.701  13.778  38.331  0.00  0.00    +0.000 A 
ENDBRANCH   1   6
BRANCH   1   9
ATOM      9  C   UNL     1      16.799  11.101  37.222  0.00  0.00    +0.000 A 
ATOM     10  C   UNL     1      16.700  11.924  36.132  0.00  0.00    +0.000 A 
ATOM     11  C   UNL     1      15.497  12.561  35.805  0.00  0.00    +0.000 A 
ATOM     12  C   UNL     1      14.415  12.327  36.633  0.00  0.00    +0.000 A 
ATOM     13  C   UNL     1      13.116  12.975  36.337  0.00  0.00    +0.000 C 
ATOM     14  C   UNL     1      14.476  11.509  37.736  0.00  0.00    +0.000 A 
ATOM     15  C   UNL     1      15.697  10.903  38.009  0.00  0.00    +0.000 A 
ENDBRANCH   1   9
BRANCH   1  16
ATOM     16  C   UNL     1      18.569   9.568  36.414  0.00  0.00    +0.000 C 
ATOM     17  O   UNL     1      17.531   8.949  35.744  0.00  0.00    +0.000 OA
ENDBRANCH   1  16
BRANCH   1  18
ATOM     18  C   UNL     1      17.873   9.598  38.785  0.00  0.00    +0.000 C 
ATOM     19  O   UNL     1      18.675   8.443  38.627  0.00  0.00    +0.000 OA
ENDBRANCH   1  18
TORSDOF 4
ENDMDL
MODEL 5
REMARK VINA RESULT:      -5.3     20.306     22.271
REMARK  Name = 
REMARK  4 active torsions:
REMARK  status: ('A' for Active; 'I' for Inactive)
REMARK    1  A    between atoms: C_5  and  C_6
REMARK    2  A    between atoms: C_6  and  C_7
REMARK    3  A    between atoms: C_6  and  C_9
REMARK    4  A    between atoms: C_6  and  C_11
REMARK                            x       y       z     vdW  Elec       q    Type
REMARK                         _______ _______ _______ _____ _____    ______ ____
ROOT
ATOM      1  C   UNL     1      26.967  23.956  23.582  0.00  0.00    +0.000 C 
ENDROOT
BRANCH   1   6
ATOM      2  C   UNL     1      30.833  21.692  27.290  0.00  0.00    +0.000 C 
ATOM      3  C   UNL     1      29.852  22.271  26.331  0.00  0.00    +0.000 A 
ATOM      4  C   UNL     1      28.539  22.512  26.711  0.00  0.00    +0.000 A 
ATOM      5  C   UNL     1      27.630  23.049  25.825  0.00  0.00    +0.000 A 
ATOM      6  C   UNL     1      27.977  23.370  24.523  0.00  0.00    +0.000 A 
ATOM      7  C   UNL     1      29.282  23.132  24.143  0.00  0.00    +0.000 A 
ATOM      8  C   UNL     1      30.189  22.595  25.030  0.00  0.00    +0.000 A 
ENDBRANCH   1   6
BRANCH   1   9
ATOM      9  C   UNL     1      26.610  25.303  24.045  0.00  0.00    +0.000 A 
ATOM     10  C   UNL     1      27.543  26.305  24.037  0.00  0.00    +0.000 A 
ATOM     11  C   UNL     1      27.233  27.597  24.477  0.00  0.00    +0.000 A 
ATOM     12  C   UNL     1      25.943  27.818  24.923  0.00  0.00    +0.000 A 
ATOM     13  C   UNL     1      25.556  29.165  25.401  0.00  0.00    +0.000 C 
ATOM     14  C   UNL     1      24.978  26.837  24.947  0.00  0.00    +0.000 A 
ATOM     15  C   UNL     1      25.346  25.576  24.497  0.00  0.00    +0.000 A 
ENDBRANCH   1   9
BRANCH   1  16
ATOM     16  C   UNL     1      27.497  23.959  22.164  0.00  0.00    +0.000 C 
ATOM     17  O   UNL     1      27.158  25.113  21.482  0.00  0.00    +0.000 OA
ENDBRANCH   1  16
BRANCH   1  18
ATOM     18  C   UNL     1      25.719  23.089  23.643  0.00  0.00    +0.000 C 
ATOM     19  O   UNL     1      25.384  22.757  22.309  0.00  0.00    +0.000 OA
ENDBRANCH   1  18
TORSDOF 4
ENDMDL
MODEL 6
REMARK VINA RESULT:      -5.3     17.638     19.736
REMARK  Name = 
REMARK  4 active torsions:
REMARK  status: ('A' for Active; 'I' for Inactive)
REMARK    1  A    between atoms: C_5  and  C_6
REMARK    2  A    between atoms: C_6  and  C_7
REMARK    3  A    between atoms: C_6  and  C_9
REMARK    4  A    between atoms: C_6  and  C_11
REMARK                            x       y       z     vdW  Elec       q    Type
REMARK                         _______ _______ _______ _____ _____    ______ ____
ROOT
ATOM      1  C   UNL     1      27.303  23.306  29.443  0.00  0.00    +0.000 C 
ENDROOT
BRANCH   1   6
ATOM      2  C   UNL     1      31.290  23.163  25.210  0.00  0.00    +0.000 C 
ATOM      3  C   UNL     1      30.271  23.212  26.295  0.00  0.00    +0.000 A 
ATOM      4  C   UNL     1      29.503  22.098  26.605  0.00  0.00    +0.000 A 
ATOM      5  C   UNL     1      28.561  22.142  27.610  0.00  0.00    +0.000 A 
ATOM      6  C   UNL     1      28.334  23.289  28.353  0.00  0.00    +0.000 A 
ATOM      7  C   UNL     1      29.096  24.397  28.047  0.00  0.00    +0.000 A 
ATOM      8  C   UNL     1      30.038  24.352  27.042  0.00  0.00    +0.000 A 
ENDBRANCH   1   6
BRANCH   1   9
ATOM      9  C   UNL     1      26.223  24.225  29.062  0.00  0.00    +0.000 A 
ATOM     10  C   UNL     1      25.745  25.138  29.964  0.00  0.00    +0.000 A 
ATOM     11  C   UNL     1      24.713  26.023  29.631  0.00  0.00    +0.000 A 
ATOM     12  C   UNL     1      24.195  25.934  28.352  0.00  0.00    +0.000 A 
ATOM     13  C   UNL     1      23.102  26.845  27.942  0.00  0.00    +0.000 C 
ATOM     14  C   UNL     1      24.649  25.031  27.419  0.00  0.00    +0.000 A 
ATOM     15  C   UNL     1      25.675  24.179  27.809  0.00  0.00    +0.000 A 
ENDBRANCH   1   9
BRANCH   1  16
ATOM     16  C   UNL     1      26.795  21.906  29.718  0.00  0.00    +0.000 C 
ATOM     17  O   UNL     1      25.885  21.876  30.758  0.00  0.00    +0.000 OA
ENDBRANCH   1  16
BRANCH   1  18
ATOM     18  C   UNL     1      27.966  23.849  30.699  0.00  0.00    +0.000 C 
ATOM     19  O   UNL     1      28.942  22.903  31.090  0.00  0.00    +0.000 OA
ENDBRANCH   1  18
TORSDOF 4
ENDMDL
MODEL 7
REMARK VINA RESULT:      -5.3     20.858     22.856
REMARK  Name = 
REMARK  4 active torsions:
REMARK  status: ('A' for Active; 'I' for Inactive)
REMARK    1  A    between atoms: C_5  and  C_6
REMARK    2  A    between atoms: C_6  and  C_7
REMARK    3  A    between atoms: C_6  and  C_9
REMARK    4  A    between atoms: C_6  and  C_11
REMARK                            x       y       z     vdW  Elec       q    Type
REMARK                         _______ _______ _______ _____ _____    ______ ____
ROOT
ATOM      1  C   UNL     1      27.371  24.294  24.271  0.00  0.00    +0.000 C 
ENDROOT
BRANCH   1   6
ATOM      2  C   UNL     1      31.562  22.839  28.033  0.00  0.00    +0.000 C 
ATOM      3  C   UNL     1      30.492  23.224  27.071  0.00  0.00    +0.000 A 
ATOM      4  C   UNL     1      29.764  22.259  26.388  0.00  0.00    +0.000 A 
ATOM      5  C   UNL     1      28.773  22.614  25.499  0.00  0.00    +0.000 A 
ATOM      6  C   UNL     1      28.457  23.938  25.242  0.00  0.00    +0.000 A 
ATOM      7  C   UNL     1      29.179  24.899  25.920  0.00  0.00    +0.000 A 
ATOM      8  C   UNL     1      30.169  24.542  26.808  0.00  0.00    +0.000 A 
ENDBRANCH   1   6
BRANCH   1   9
ATOM      9  C   UNL     1      27.968  24.981  23.119  0.00  0.00    +0.000 A 
ATOM     10  C   UNL     1      27.635  26.280  22.843  0.00  0.00    +0.000 A 
ATOM     11  C   UNL     1      28.185  26.959  21.749  0.00  0.00    +0.000 A 
ATOM     12  C   UNL     1      29.078  26.260  20.958  0.00  0.00    +0.000 A 
ATOM     13  C   UNL     1      29.693  26.926  19.787  0.00  0.00    +0.000 C 
ATOM     14  C   UNL     1      29.437  24.955  21.203  0.00  0.00    +0.000 A 
ATOM     15  C   UNL     1      28.858  24.335  22.304  0.00  0.00    +0.000 A 
ENDBRANCH   1   9
BRANCH   1  16
ATOM     16  C   UNL     1      26.595  23.059  23.863  0.00  0.00    +0.000 C 
ATOM     17  O   UNL     1      25.875  23.256  22.700  0.00  0.00    +0.000 OA
ENDBRANCH   1  16
BRANCH   1  18
ATOM     18  C   UNL     1      26.428  25.265  24.964  0.00  0.00    +0.000 C 
ATOM     19  O   UNL     1      25.614  24.499  25.831  0.00  0.00    +0.000 OA
ENDBRANCH   1  18
TORSDOF 4
ENDMDL
MODEL 8
REMARK VINA RESULT:      -5.3      1.897      3.999
REMARK  Name = 
REMARK  4 active torsions:
REMARK  status: ('A' for Active; 'I' for Inactive)
REMARK    1  A    between atoms: C_5  and  C_6
REMARK    2  A    between atoms: C_6  and  C_7
REMARK    3  A    between atoms: C_6  and  C_9
REMARK    4  A    between atoms: C_6  and  C_11
REMARK                            x       y       z     vdW  Elec       q    Type
REMARK                         _______ _______ _______ _____ _____    ______ ____
ROOT
ATOM      1  C   UNL     1      17.897  10.296  37.932  0.00  0.00    +0.000 C 
ENDROOT
BRANCH   1   6
ATOM      2  C   UNL     1      16.070   7.497  42.692  0.00  0.00    +0.000 C 
ATOM      3  C   UNL     1      16.530   8.223  41.475  0.00  0.00    +0.000 A 
ATOM      4  C   UNL     1      17.628   7.781  40.752  0.00  0.00    +0.000 A 
ATOM      5  C   UNL     1      18.053   8.451  39.625  0.00  0.00    +0.000 A 
ATOM      6  C   UNL     1      17.413   9.589  39.163  0.00  0.00    +0.000 A 
ATOM      7  C   UNL     1      16.320  10.030  39.880  0.00  0.00    +0.000 A 
ATOM      8  C   UNL     1      15.897   9.359  41.006  0.00  0.00    +0.000 A 
ENDBRANCH   1   6
BRANCH   1   9
ATOM      9  C   UNL     1      18.882  11.312  38.322  0.00  0.00    +0.000 A 
ATOM     10  C   UNL     1      18.835  12.565  37.771  0.00  0.00    +0.000 A 
ATOM     11  C   UNL     1      19.764  13.552  38.121  0.00  0.00    +0.000 A 
ATOM     12  C   UNL     1      20.732  13.208  39.046  0.00  0.00    +0.000 A 
ATOM     13  C   UNL     1      21.741  14.211  39.455  0.00  0.00    +0.000 C 
ATOM     14  C   UNL     1      20.811  11.960  39.621  0.00  0.00    +0.000 A 
ATOM     15  C   UNL     1      19.862  11.023  39.234  0.00  0.00    +0.000 A 
ENDBRANCH   1   9
BRANCH   1  16
ATOM     16  C   UNL     1      18.461   9.305  36.935  0.00  0.00    +0.000 C 
ATOM     17  O   UNL     1      19.696   9.695  36.452  0.00  0.00    +0.000 OA
ENDBRANCH   1  16
BRANCH   1  18
ATOM     18  C   UNL     1      16.707  11.006  37.306  0.00  0.00    +0.000 C 
ATOM     19  O   UNL     1      16.503  10.423  36.033  0.00  0.00    +0.000 OA
ENDBRANCH   1  18
TORSDOF 4
ENDMDL
MODEL 9
REMARK VINA RESULT:      -5.2     20.623     23.111
REMARK  Name = 
REMARK  4 active torsions:
REMARK  status: ('A' for Active; 'I' for Inactive)
REMARK    1  A    between atoms: C_5  and  C_6
REMARK    2  A    between atoms: C_6  and  C_7
REMARK    3  A    between atoms: C_6  and  C_9
REMARK    4  A    between atoms: C_6  and  C_11
REMARK                            x       y       z     vdW  Elec       q    Type
REMARK                         _______ _______ _______ _____ _____    ______ ____
ROOT
ATOM      1  C   UNL     1      27.281  24.370  24.680  0.00  0.00    +0.000 C 
ENDROOT
BRANCH   1   6
ATOM      2  C   UNL     1      29.778  27.229  20.274  0.00  0.00    +0.000 C 
ATOM      3  C   UNL     1      29.135  26.489  21.394  0.00  0.00    +0.000 A 
ATOM      4  C   UNL     1      29.372  26.843  22.714  0.00  0.00    +0.000 A 
ATOM      5  C   UNL     1      28.776  26.159  23.752  0.00  0.00    +0.000 A 
ATOM      6  C   UNL     1      27.918  25.093  23.531  0.00  0.00    +0.000 A 
ATOM      7  C   UNL     1      27.680  24.740  22.219  0.00  0.00    +0.000 A 
ATOM      8  C   UNL     1      28.277  25.425  21.183  0.00  0.00    +0.000 A 
ENDBRANCH   1   6
BRANCH   1   9
ATOM      9  C   UNL     1      28.336  23.766  25.506  0.00  0.00    +0.000 A 
ATOM     10  C   UNL     1      29.192  22.845  24.965  0.00  0.00    +0.000 A 
ATOM     11  C   UNL     1      30.202  22.250  25.729  0.00  0.00    +0.000 A 
ATOM     12  C   UNL     1      30.297  22.631  27.055  0.00  0.00    +0.000 A 
ATOM     13  C   UNL     1      31.348  22.035  27.912  0.00  0.00    +0.000 C 
ATOM     14  C   UNL     1      29.456  23.552  27.633  0.00  0.00    +0.000 A 
ATOM     15  C   UNL     1      28.473  24.109  26.824  0.00  0.00    +0.000 A 
ENDBRANCH   1   9
BRANCH   1  16
ATOM     16  C   UNL     1      26.396  25.306  25.475  0.00  0.00    +0.000 C 
ATOM     17  O   UNL     1      25.485  25.968  24.674  0.00  0.00    +0.000 OA
ENDBRANCH   1  16
BRANCH   1  18
ATOM     18  C   UNL     1      26.429  23.248  24.107  0.00  0.00    +0.000 C 
ATOM     19  O   UNL     1      25.645  22.743  25.171  0.00  0.00    +0.000 OA
ENDBRANCH   1  18
TORSDOF 4
ENDMDL
MODEL 10
REMARK VINA RESULT:      -5.2     22.822     24.779
REMARK  Name = 
REMARK  4 active torsions:
REMARK  status: ('A' for Active; 'I' for Inactive)
REMARK    1  A    between atoms: C_5  and  C_6
REMARK    2  A    between atoms: C_6  and  C_7
REMARK    3  A    between atoms: C_6  and  C_9
REMARK    4  A    between atoms: C_6  and  C_11
REMARK                            x       y       z     vdW  Elec       q    Type
REMARK                         _______ _______ _______ _____ _____    ______ ____
ROOT
ATOM      1  C   UNL     1      28.611  24.876  23.104  0.00  0.00    +0.000 C 
ENDROOT
BRANCH   1   6
ATOM      2  C   UNL     1      33.786  24.692  25.753  0.00  0.00    +0.000 C 
ATOM      3  C   UNL     1      32.461  24.751  25.075  0.00  0.00    +0.000 A 
ATOM      4  C   UNL     1      31.884  23.612  24.533  0.00  0.00    +0.000 A 
ATOM      5  C   UNL     1      30.657  23.666  23.907  0.00  0.00    +0.000 A 
ATOM      6  C   UNL     1      29.946  24.849  23.788  0.00  0.00    +0.000 A 
ATOM      7  C   UNL     1      30.518  25.983  24.327  0.00  0.00    +0.000 A 
ATOM      8  C   UNL     1      31.744  25.927  24.952  0.00  0.00    +0.000 A 
ENDBRANCH   1   6
BRANCH   1   9
ATOM      9  C   UNL     1      28.647  25.877  22.030  0.00  0.00    +0.000 A 
ATOM     10  C   UNL     1      27.799  26.951  22.061  0.00  0.00    +0.000 A 
ATOM     11  C   UNL     1      27.807  27.918  21.049  0.00  0.00    +0.000 A 
ATOM     12  C   UNL     1      28.708  27.741  20.015  0.00  0.00    +0.000 A 
ATOM     13  C   UNL     1      28.763  28.732  18.916  0.00  0.00    +0.000 C 
ATOM     14  C   UNL     1      29.575  26.675  19.949  0.00  0.00    +0.000 A 
ATOM     15  C   UNL     1      29.520  25.749  20.983  0.00  0.00    +0.000 A 
ENDBRANCH   1   9
BRANCH   1  16
ATOM     16  C   UNL     1      28.247  23.499  22.592  0.00  0.00    +0.000 C 
ATOM     17  O   UNL     1      27.014  23.484  21.965  0.00  0.00    +0.000 OA
ENDBRANCH   1  16
BRANCH   1  18
ATOM     18  C   UNL     1      27.575  25.316  24.126  0.00  0.00    +0.000 C 
ATOM     19  O   UNL     1      27.506  24.297  25.105  0.00  0.00    +0.000 OA
ENDBRANCH   1  18
TORSDOF 4
ENDMDL
