MODEL 1
REMARK VINA RESULT:      -6.5      0.000      0.000
REMARK  Name = 
REMARK  2 active torsions:
REMARK  status: ('A' for Active; 'I' for Inactive)
REMARK    1  A    between atoms: C_6  and  C_7
REMARK    2  A    between atoms: C_11  and  C_12
REMARK                            x       y       z     vdW  Elec       q    Type
REMARK                         _______ _______ _______ _____ _____    ______ ____
ROOT
ATOM      1  C   UNL     1      29.343  23.476  27.210  0.00  0.00    +0.000 C 
ATOM      2  C   UNL     1      28.748  23.673  25.849  0.00  0.00    +0.000 C 
ATOM      3  C   UNL     1      29.104  22.862  24.955  0.00  0.00    +0.000 C 
ATOM      4  C   UNL     1      28.563  22.941  23.431  0.00  0.00    +0.000 C 
ATOM      5  C   UNL     1      29.429  24.264  23.084  0.00  0.00    +0.000 C 
ATOM      6  C   UNL     1      27.136  23.691  23.825  0.00  0.00    +0.000 C 
ATOM      7  C   UNL     1      26.334  22.956  24.648  0.00  0.00    +0.000 C 
ATOM      8  O   UNL     1      26.461  22.906  25.992  0.00  0.00    +0.000 OA
ATOM      9  C   UNL     1      26.308  24.398  26.238  0.00  0.00    +0.000 C 
ATOM     10  C   UNL     1      27.884  24.900  25.895  0.00  0.00    +0.000 C 
ATOM     11  C   UNL     1      27.607  25.156  24.225  0.00  0.00    +0.000 C 
ATOM     12  C   UNL     1      26.141  25.816  24.337  0.00  0.00    +0.000 C 
ENDROOT
BRANCH   9  13
ATOM     13  C   UNL     1      26.440  24.388  27.773  0.00  0.00    +0.000 A 
ATOM     14  C   UNL     1      26.364  23.179  28.372  0.00  0.00    +0.000 A 
ATOM     15  C   UNL     1      26.266  23.054  29.777  0.00  0.00    +0.000 A 
ATOM     16  C   UNL     1      26.250  24.248  30.525  0.00  0.00    +0.000 A 
ATOM     17  C   UNL     1      26.334  25.425  29.881  0.00  0.00    +0.000 A 
ATOM     18  C   UNL     1      26.432  25.568  28.510  0.00  0.00    +0.000 A 
ATOM     19  O   UNL     1      26.518  26.772  27.853  0.00  0.00    +0.000 OA
ENDBRANCH   9  13
BRANCH   6  20
ATOM     20  C   UNL     1      26.594  23.816  22.425  0.00  0.00    +0.000 C 
ATOM     21  O   UNL     1      25.564  22.898  22.192  0.00  0.00    +0.000 OA
ENDBRANCH   6  20
TORSDOF 2
ENDMDL
MODEL 2
REMARK VINA RESULT:      -6.3      1.784      2.351
REMARK  Name = 
REMARK  2 active torsions:
REMARK  status: ('A' for Active; 'I' for Inactive)
REMARK    1  A    between atoms: C_6  and  C_7
REMARK    2  A    between atoms: C_11  and  C_12
REMARK                            x       y       z     vdW  Elec       q    Type
REMARK                         _______ _______ _______ _____ _____    ______ ____
ROOT
ATOM      1  C   UNL     1      29.029  25.880  26.899  0.00  0.00    +0.000 C 
ATOM      2  C   UNL     1      28.829  25.535  25.454  0.00  0.00    +0.000 C 
ATOM      3  C   UNL     1      29.799  25.753  24.683  0.00  0.00    +0.000 C 
ATOM      4  C   UNL     1      29.744  25.446  23.094  0.00  0.00    +0.000 C 
ATOM      5  C   UNL     1      28.753  26.687  22.785  0.00  0.00    +0.000 C 
ATOM      6  C   UNL     1      28.596  24.254  23.219  0.00  0.00    +0.000 C 
ATOM      7  C   UNL     1      28.992  23.182  23.964  0.00  0.00    +0.000 C 
ATOM      8  O   UNL     1      28.926  23.126  25.312  0.00  0.00    +0.000 OA
ATOM      9  C   UNL     1      27.431  23.373  25.426  0.00  0.00    +0.000 C 
ATOM     10  C   UNL     1      27.416  25.056  25.284  0.00  0.00    +0.000 C 
ATOM     11  C   UNL     1      27.280  25.069  23.578  0.00  0.00    +0.000 C 
ATOM     12  C   UNL     1      26.238  23.849  23.425  0.00  0.00    +0.000 C 
ENDROOT
BRANCH   9  13
ATOM     13  C   UNL     1      27.307  23.309  26.961  0.00  0.00    +0.000 A 
ATOM     14  C   UNL     1      28.303  22.671  27.614  0.00  0.00    +0.000 A 
ATOM     15  C   UNL     1      28.207  22.366  28.992  0.00  0.00    +0.000 A 
ATOM     16  C   UNL     1      27.027  22.758  29.653  0.00  0.00    +0.000 A 
ATOM     17  C   UNL     1      26.069  23.396  28.958  0.00  0.00    +0.000 A 
ATOM     18  C   UNL     1      26.144  23.703  27.612  0.00  0.00    +0.000 A 
ATOM     19  O   UNL     1      25.163  24.356  26.903  0.00  0.00    +0.000 OA
ENDBRANCH   9  13
BRANCH   6  20
ATOM     20  C   UNL     1      28.484  23.944  21.748  0.00  0.00    +0.000 C 
ATOM     21  O   UNL     1      29.699  24.156  21.088  0.00  0.00    +0.000 OA
ENDBRANCH   6  20
TORSDOF 2
ENDMDL
MODEL 3
REMARK VINA RESULT:      -6.1      2.463      5.832
REMARK  Name = 
REMARK  2 active torsions:
REMARK  status: ('A' for Active; 'I' for Inactive)
REMARK    1  A    between atoms: C_6  and  C_7
REMARK    2  A    between atoms: C_11  and  C_12
REMARK                            x       y       z     vdW  Elec       q    Type
REMARK                         _______ _______ _______ _____ _____    ______ ____
ROOT
ATOM      1  C   UNL     1      32.018  24.059  24.487  0.00  0.00    +0.000 C 
ATOM      2  C   UNL     1      31.255  23.644  25.708  0.00  0.00    +0.000 C 
ATOM      3  C   UNL     1      31.824  23.823  26.816  0.00  0.00    +0.000 C 
ATOM      4  C   UNL     1      31.141  23.421  28.229  0.00  0.00    +0.000 C 
ATOM      5  C   UNL     1      31.326  21.832  27.982  0.00  0.00    +0.000 C 
ATOM      6  C   UNL     1      29.582  23.565  27.680  0.00  0.00    +0.000 C 
ATOM      7  C   UNL     1      29.258  24.822  27.260  0.00  0.00    +0.000 C 
ATOM      8  O   UNL     1      29.536  25.310  26.032  0.00  0.00    +0.000 OA
ATOM      9  C   UNL     1      28.794  24.242  25.246  0.00  0.00    +0.000 C 
ATOM     10  C   UNL     1      29.963  23.024  25.258  0.00  0.00    +0.000 C 
ATOM     11  C   UNL     1      29.430  22.308  26.719  0.00  0.00    +0.000 C 
ATOM     12  C   UNL     1      27.843  22.437  26.468  0.00  0.00    +0.000 C 
ENDROOT
BRANCH   9  13
ATOM     13  C   UNL     1      29.079  24.767  23.826  0.00  0.00    +0.000 A 
ATOM     14  C   UNL     1      29.493  26.051  23.735  0.00  0.00    +0.000 A 
ATOM     15  C   UNL     1      29.590  26.710  22.487  0.00  0.00    +0.000 A 
ATOM     16  C   UNL     1      29.236  25.969  21.343  0.00  0.00    +0.000 A 
ATOM     17  C   UNL     1      28.838  24.693  21.488  0.00  0.00    +0.000 A 
ATOM     18  C   UNL     1      28.736  24.031  22.697  0.00  0.00    +0.000 A 
ATOM     19  O   UNL     1      28.327  22.726  22.843  0.00  0.00    +0.000 OA
ENDBRANCH   9  13
BRANCH   6  20
ATOM     20  C   UNL     1      28.893  23.172  28.962  0.00  0.00    +0.000 C 
ATOM     21  O   UNL     1      28.240  24.263  29.546  0.00  0.00    +0.000 OA
ENDBRANCH   6  20
TORSDOF 2
ENDMDL
MODEL 4
REMARK VINA RESULT:      -5.9      2.089      2.929
REMARK  Name = 
REMARK  2 active torsions:
REMARK  status: ('A' for Active; 'I' for Inactive)
REMARK    1  A    between atoms: C_6  and  C_7
REMARK    2  A    between atoms: C_11  and  C_12
REMARK                            x       y       z     vdW  Elec       q    Type
REMARK                         _______ _______ _______ _____ _____    ______ ____
ROOT
ATOM      1  C   UNL     1      30.854  25.307  24.739  0.00  0.00    +0.000 C 
ATOM      2  C   UNL     1      29.627  25.183  23.888  0.00  0.00    +0.000 C 
ATOM      3  C   UNL     1      29.805  25.155  22.643  0.00  0.00    +0.000 C 
ATOM      4  C   UNL     1      28.585  25.035  21.583  0.00  0.00    +0.000 C 
ATOM      5  C   UNL     1      28.078  26.550  21.840  0.00  0.00    +0.000 C 
ATOM      6  C   UNL     1      27.559  24.262  22.634  0.00  0.00    +0.000 C 
ATOM      7  C   UNL     1      28.021  23.054  23.069  0.00  0.00    +0.000 C 
ATOM      8  O   UNL     1      28.887  22.892  24.092  0.00  0.00    +0.000 OA
ATOM      9  C   UNL     1      28.045  23.589  25.148  0.00  0.00    +0.000 C 
ATOM     10  C   UNL     1      28.431  25.196  24.796  0.00  0.00    +0.000 C 
ATOM     11  C   UNL     1      27.171  25.414  23.658  0.00  0.00    +0.000 C 
ATOM     12  C   UNL     1      26.016  24.608  24.441  0.00  0.00    +0.000 C 
ENDROOT
BRANCH   9  13
ATOM     13  C   UNL     1      28.999  23.421  26.346  0.00  0.00    +0.000 A 
ATOM     14  C   UNL     1      29.968  22.489  26.211  0.00  0.00    +0.000 A 
ATOM     15  C   UNL     1      30.774  22.097  27.306  0.00  0.00    +0.000 A 
ATOM     16  C   UNL     1      30.520  22.721  28.543  0.00  0.00    +0.000 A 
ATOM     17  C   UNL     1      29.548  23.647  28.621  0.00  0.00    +0.000 A 
ATOM     18  C   UNL     1      28.752  24.044  27.564  0.00  0.00    +0.000 A 
ATOM     19  O   UNL     1      27.758  24.991  27.646  0.00  0.00    +0.000 OA
ENDBRANCH   9  13
BRANCH   6  20
ATOM     20  C   UNL     1      26.383  24.146  21.700  0.00  0.00    +0.000 C 
ATOM     21  O   UNL     1      25.701  22.939  21.884  0.00  0.00    +0.000 OA
ENDBRANCH   6  20
TORSDOF 2
ENDMDL
MODEL 5
REMARK VINA RESULT:      -5.9      1.838      5.513
REMARK  Name = 
REMARK  2 active torsions:
REMARK  status: ('A' for Active; 'I' for Inactive)
REMARK    1  A    between atoms: C_6  and  C_7
REMARK    2  A    between atoms: C_11  and  C_12
REMARK                            x       y       z     vdW  Elec       q    Type
REMARK                         _______ _______ _______ _____ _____    ______ ____
ROOT
ATOM      1  C   UNL     1      30.622  24.459  24.976  0.00  0.00    +0.000 C 
ATOM      2  C   UNL     1      29.402  24.083  25.760  0.00  0.00    +0.000 C 
ATOM      3  C   UNL     1      29.459  24.253  27.006  0.00  0.00    +0.000 C 
ATOM      4  C   UNL     1      28.232  23.889  27.999  0.00  0.00    +0.000 C 
ATOM      5  C   UNL     1      28.445  22.292  27.842  0.00  0.00    +0.000 C 
ATOM      6  C   UNL     1      27.054  24.084  26.847  0.00  0.00    +0.000 C 
ATOM      7  C   UNL     1      26.983  25.347  26.338  0.00  0.00    +0.000 C 
ATOM      8  O   UNL     1      27.769  25.814  25.343  0.00  0.00    +0.000 OA
ATOM      9  C   UNL     1      27.387  24.766  24.311  0.00  0.00    +0.000 C 
ATOM     10  C   UNL     1      28.397  23.506  24.806  0.00  0.00    +0.000 C 
ATOM     11  C   UNL     1      27.274  22.824  25.903  0.00  0.00    +0.000 C 
ATOM     12  C   UNL     1      25.945  23.008  25.009  0.00  0.00    +0.000 C 
ENDROOT
BRANCH   9  13
ATOM     13  C   UNL     1      28.261  25.266  23.145  0.00  0.00    +0.000 A 
ATOM     14  C   UNL     1      28.656  26.558  23.207  0.00  0.00    +0.000 A 
ATOM     15  C   UNL     1      29.284  27.191  22.109  0.00  0.00    +0.000 A 
ATOM     16  C   UNL     1      29.479  26.417  20.949  0.00  0.00    +0.000 A 
ATOM     17  C   UNL     1      29.074  25.134  20.943  0.00  0.00    +0.000 A 
ATOM     18  C   UNL     1      28.460  24.497  22.004  0.00  0.00    +0.000 A 
ATOM     19  O   UNL     1      28.046  23.186  21.996  0.00  0.00    +0.000 OA
ENDBRANCH   9  13
BRANCH   6  20
ATOM     20  C   UNL     1      25.877  23.728  27.718  0.00  0.00    +0.000 C 
ATOM     21  O   UNL     1      25.757  24.608  28.799  0.00  0.00    +0.000 OA
ENDBRANCH   6  20
TORSDOF 2
ENDMDL
MODEL 6
REMARK VINA RESULT:      -5.9     19.732     21.732
REMARK  Name = 
REMARK  2 active torsions:
REMARK  status: ('A' for Active; 'I' for Inactive)
REMARK    1  A    between atoms: C_6  and  C_7
REMARK    2  A    between atoms: C_11  and  C_12
REMARK                            x       y       z     vdW  Elec       q    Type
REMARK                         _______ _______ _______ _____ _____    ______ ____
ROOT
ATOM      1  C   UNL     1      25.680   6.896  17.463  0.00  0.00    +0.000 C 
ATOM      2  C   UNL     1      26.866   6.669  16.576  0.00  0.00    +0.000 C 
ATOM      3  C   UNL     1      27.912   7.308  16.860  0.00  0.00    +0.000 C 
ATOM      4  C   UNL     1      29.278   7.185  15.997  0.00  0.00    +0.000 C 
ATOM      5  C   UNL     1      28.680   8.013  14.742  0.00  0.00    +0.000 C 
ATOM      6  C   UNL     1      28.958   5.654  15.442  0.00  0.00    +0.000 C 
ATOM      7  C   UNL     1      28.855   4.719  16.431  0.00  0.00    +0.000 C 
ATOM      8  O   UNL     1      27.735   4.490  17.149  0.00  0.00    +0.000 OA
ATOM      9  C   UNL     1      26.832   4.168  15.969  0.00  0.00    +0.000 C 
ATOM     10  C   UNL     1      26.449   5.737  15.475  0.00  0.00    +0.000 C 
ATOM     11  C   UNL     1      27.777   5.894  14.407  0.00  0.00    +0.000 C 
ATOM     12  C   UNL     1      27.747   4.406  13.787  0.00  0.00    +0.000 C 
ENDROOT
BRANCH   9  13
ATOM     13  C   UNL     1      25.532   3.889  16.748  0.00  0.00    +0.000 A 
ATOM     14  C   UNL     1      25.666   3.670  18.075  0.00  0.00    +0.000 A 
ATOM     15  C   UNL     1      24.586   3.205  18.860  0.00  0.00    +0.000 A 
ATOM     16  C   UNL     1      23.364   2.979  18.197  0.00  0.00    +0.000 A 
ATOM     17  C   UNL     1      23.282   3.219  16.876  0.00  0.00    +0.000 A 
ATOM     18  C   UNL     1      24.325   3.673  16.092  0.00  0.00    +0.000 A 
ATOM     19  O   UNL     1      24.240   3.918  14.741  0.00  0.00    +0.000 OA
ENDBRANCH   9  13
BRANCH   6  20
ATOM     20  C   UNL     1      30.199   5.494  14.602  0.00  0.00    +0.000 C 
ATOM     21  O   UNL     1      31.357   5.741  15.348  0.00  0.00    +0.000 OA
ENDBRANCH   6  20
TORSDOF 2
ENDMDL
MODEL 7
REMARK VINA RESULT:      -5.8     16.809     19.404
REMARK  Name = 
REMARK  2 active torsions:
REMARK  status: ('A' for Active; 'I' for Inactive)
REMARK    1  A    between atoms: C_6  and  C_7
REMARK    2  A    between atoms: C_11  and  C_12
REMARK                            x       y       z     vdW  Elec       q    Type
REMARK                         _______ _______ _______ _____ _____    ______ ____
ROOT
ATOM      1  C   UNL     1      20.978  12.815  38.693  0.00  0.00    +0.000 C 
ATOM      2  C   UNL     1      22.272  12.143  38.349  0.00  0.00    +0.000 C 
ATOM      3  C   UNL     1      23.310  12.610  38.885  0.00  0.00    +0.000 C 
ATOM      4  C   UNL     1      24.788  12.007  38.612  0.00  0.00    +0.000 C 
ATOM      5  C   UNL     1      24.863  12.598  37.107  0.00  0.00    +0.000 C 
ATOM      6  C   UNL     1      24.253  10.481  38.239  0.00  0.00    +0.000 C 
ATOM      7  C   UNL     1      23.595   9.862  39.261  0.00  0.00    +0.000 C 
ATOM      8  O   UNL     1      22.288  10.046  39.549  0.00  0.00    +0.000 OA
ATOM      9  C   UNL     1      21.748   9.627  38.192  0.00  0.00    +0.000 C 
ATOM     10  C   UNL     1      21.982  11.068  37.342  0.00  0.00    +0.000 C 
ATOM     11  C   UNL     1      23.567  10.686  36.820  0.00  0.00    +0.000 C 
ATOM     12  C   UNL     1      23.327   9.128  36.485  0.00  0.00    +0.000 C 
ENDROOT
BRANCH   9  13
ATOM     13  C   UNL     1      20.246   9.816  38.478  0.00  0.00    +0.000 A 
ATOM     14  C   UNL     1      19.893   9.907  39.780  0.00  0.00    +0.000 A 
ATOM     15  C   UNL     1      18.537   9.876  40.182  0.00  0.00    +0.000 A 
ATOM     16  C   UNL     1      17.571   9.745  39.165  0.00  0.00    +0.000 A 
ATOM     17  C   UNL     1      17.976   9.665  37.885  0.00  0.00    +0.000 A 
ATOM     18  C   UNL     1      19.294   9.694  37.472  0.00  0.00    +0.000 A 
ATOM     19  O   UNL     1      19.706   9.611  36.163  0.00  0.00    +0.000 OA
ENDBRANCH   9  13
BRANCH   6  20
ATOM     20  C   UNL     1      25.600   9.874  37.947  0.00  0.00    +0.000 C 
ATOM     21  O   UNL     1      25.939   8.903  38.895  0.00  0.00    +0.000 OA
ENDBRANCH   6  20
TORSDOF 2
ENDMDL
MODEL 8
REMARK VINA RESULT:      -5.8      2.381      5.639
REMARK  Name = 
REMARK  2 active torsions:
REMARK  status: ('A' for Active; 'I' for Inactive)
REMARK    1  A    between atoms: C_6  and  C_7
REMARK    2  A    between atoms: C_11  and  C_12
REMARK                            x       y       z     vdW  Elec       q    Type
REMARK                         _______ _______ _______ _____ _____    ______ ____
ROOT
ATOM      1  C   UNL     1      27.834  25.010  25.525  0.00  0.00    +0.000 C 
ATOM      2  C   UNL     1      27.446  24.728  26.944  0.00  0.00    +0.000 C 
ATOM      3  C   UNL     1      26.235  24.458  27.154  0.00  0.00    +0.000 C 
ATOM      4  C   UNL     1      25.648  24.138  28.629  0.00  0.00    +0.000 C 
ATOM      5  C   UNL     1      25.764  25.676  29.120  0.00  0.00    +0.000 C 
ATOM      6  C   UNL     1      27.090  23.588  29.239  0.00  0.00    +0.000 C 
ATOM      7  C   UNL     1      27.576  22.486  28.599  0.00  0.00    +0.000 C 
ATOM      8  O   UNL     1      28.290  22.523  27.453  0.00  0.00    +0.000 OA
ATOM      9  C   UNL     1      29.407  23.414  27.971  0.00  0.00    +0.000 C 
ATOM     10  C   UNL     1      28.661  24.920  27.804  0.00  0.00    +0.000 C 
ATOM     11  C   UNL     1      27.951  24.918  29.362  0.00  0.00    +0.000 C 
ATOM     12  C   UNL     1      29.190  24.283  30.174  0.00  0.00    +0.000 C 
ENDROOT
BRANCH   9  13
ATOM     13  C   UNL     1      30.258  23.479  26.688  0.00  0.00    +0.000 A 
ATOM     14  C   UNL     1      29.946  22.591  25.719  0.00  0.00    +0.000 A 
ATOM     15  C   UNL     1      30.775  22.410  24.587  0.00  0.00    +0.000 A 
ATOM     16  C   UNL     1      31.940  23.197  24.515  0.00  0.00    +0.000 A 
ATOM     17  C   UNL     1      32.201  24.071  25.504  0.00  0.00    +0.000 A 
ATOM     18  C   UNL     1      31.405  24.262  26.617  0.00  0.00    +0.000 A 
ATOM     19  O   UNL     1      31.674  25.156  27.627  0.00  0.00    +0.000 OA
ENDBRANCH   9  13
BRANCH   6  20
ATOM     20  C   UNL     1      26.606  23.296  30.636  0.00  0.00    +0.000 C 
ATOM     21  O   UNL     1      25.913  22.082  30.694  0.00  0.00    +0.000 OA
ENDBRANCH   6  20
TORSDOF 2
ENDMDL
MODEL 9
REMARK VINA RESULT:      -5.8      2.356      3.609
REMARK  Name = 
REMARK  2 active torsions:
REMARK  status: ('A' for Active; 'I' for Inactive)
REMARK    1  A    between atoms: C_6  and  C_7
REMARK    2  A    between atoms: C_11  and  C_12
REMARK                            x       y       z     vdW  Elec       q    Type
REMARK                         _______ _______ _______ _____ _____    ______ ____
ROOT
ATOM      1  C   UNL     1      31.503  23.120  24.665  0.00  0.00    +0.000 C 
ATOM      2  C   UNL     1      30.067  23.534  24.557  0.00  0.00    +0.000 C 
ATOM      3  C   UNL     1      29.399  23.012  23.628  0.00  0.00    +0.000 C 
ATOM      4  C   UNL     1      27.838  23.358  23.366  0.00  0.00    +0.000 C 
ATOM      5  C   UNL     1      28.157  24.838  22.794  0.00  0.00    +0.000 C 
ATOM      6  C   UNL     1      27.520  23.778  24.940  0.00  0.00    +0.000 C 
ATOM      7  C   UNL     1      27.708  22.762  25.831  0.00  0.00    +0.000 C 
ATOM      8  O   UNL     1      28.904  22.424  26.360  0.00  0.00    +0.000 OA
ATOM      9  C   UNL     1      29.214  23.780  26.974  0.00  0.00    +0.000 C 
ATOM     10  C   UNL     1      29.805  24.575  25.606  0.00  0.00    +0.000 C 
ATOM     11  C   UNL     1      28.281  25.164  25.095  0.00  0.00    +0.000 C 
ATOM     12  C   UNL     1      27.693  25.557  26.544  0.00  0.00    +0.000 C 
ENDROOT
BRANCH   9  13
ATOM     13  C   UNL     1      30.579  23.437  27.602  0.00  0.00    +0.000 A 
ATOM     14  C   UNL     1      30.847  22.123  27.767  0.00  0.00    +0.000 A 
ATOM     15  C   UNL     1      31.967  21.686  28.513  0.00  0.00    +0.000 A 
ATOM     16  C   UNL     1      32.789  22.681  29.076  0.00  0.00    +0.000 A 
ATOM     17  C   UNL     1      32.481  23.975  28.875  0.00  0.00    +0.000 A 
ATOM     18  C   UNL     1      31.393  24.422  28.150  0.00  0.00    +0.000 A 
ATOM     19  O   UNL     1      31.079  25.745  27.946  0.00  0.00    +0.000 OA
ENDBRANCH   9  13
BRANCH   6  20
ATOM     20  C   UNL     1      26.069  24.139  24.750  0.00  0.00    +0.000 C 
ATOM     21  O   UNL     1      25.369  23.115  24.104  0.00  0.00    +0.000 OA
ENDBRANCH   6  20
TORSDOF 2
ENDMDL
MODEL 10
REMARK VINA RESULT:      -5.6     21.127     23.173
REMARK  Name = 
REMARK  2 active torsions:
REMARK  status: ('A' for Active; 'I' for Inactive)
REMARK    1  A    between atoms: C_6  and  C_7
REMARK    2  A    between atoms: C_11  and  C_12
REMARK                            x       y       z     vdW  Elec       q    Type
REMARK                         _______ _______ _______ _____ _____    ______ ____
ROOT
ATOM      1  C   UNL     1      27.867   2.549  16.651  0.00  0.00    +0.000 C 
ATOM      2  C   UNL     1      26.489   1.969  16.557  0.00  0.00    +0.000 C 
ATOM      3  C   UNL     1      26.343   0.792  16.978  0.00  0.00    +0.000 C 
ATOM      4  C   UNL     1      24.922   0.015  16.940  0.00  0.00    +0.000 C 
ATOM      5  C   UNL     1      24.956  -0.178  15.333  0.00  0.00    +0.000 C 
ATOM      6  C   UNL     1      24.003   1.396  16.992  0.00  0.00    +0.000 C 
ATOM      7  C   UNL     1      24.185   2.138  18.121  0.00  0.00    +0.000 C 
ATOM      8  O   UNL     1      25.189   3.024  18.298  0.00  0.00    +0.000 OA
ATOM      9  C   UNL     1      24.869   3.896  17.095  0.00  0.00    +0.000 C 
ATOM     10  C   UNL     1      25.607   2.979  15.883  0.00  0.00    +0.000 C 
ATOM     11  C   UNL     1      24.227   2.022  15.548  0.00  0.00    +0.000 C 
ATOM     12  C   UNL     1      23.114   3.183  15.656  0.00  0.00    +0.000 C 
ENDROOT
BRANCH   9  13
ATOM     13  C   UNL     1      25.994   4.935  17.261  0.00  0.00    +0.000 A 
ATOM     14  C   UNL     1      26.555   5.016  18.488  0.00  0.00    +0.000 A 
ATOM     15  C   UNL     1      27.447   6.061  18.825  0.00  0.00    +0.000 A 
ATOM     16  C   UNL     1      27.725   7.012  17.825  0.00  0.00    +0.000 A 
ATOM     17  C   UNL     1      27.146   6.881  16.618  0.00  0.00    +0.000 A 
ATOM     18  C   UNL     1      26.272   5.869  16.269  0.00  0.00    +0.000 A 
ATOM     19  O   UNL     1      25.680   5.737  15.035  0.00  0.00    +0.000 OA
ENDBRANCH   9  13
BRANCH   6  20
ATOM     20  C   UNL     1      22.654   0.728  16.931  0.00  0.00    +0.000 C 
ATOM     21  O   UNL     1      21.929   0.934  18.110  0.00  0.00    +0.000 OA
ENDBRANCH   6  20
TORSDOF 2
ENDMDL
