MODEL 1
REMARK VINA RESULT:      -7.1      0.000      0.000
REMARK  Name = 
REMARK  3 active torsions:
REMARK  status: ('A' for Active; 'I' for Inactive)
REMARK    1  A    between atoms: C_2  and  C_14
REMARK    2  A    between atoms: N_3  and  N_4
REMARK    3  A    between atoms: C_5  and  C_7
REMARK                            x       y       z     vdW  Elec       q    Type
REMARK                         _______ _______ _______ _____ _____    ______ ____
ROOT
ATOM      1  C   UNL     1      13.896  12.133  37.015  0.00  0.00    +0.000 C 
ATOM      2  C   UNL     1      14.994  12.199  36.019  0.00  0.00    +0.000 C 
ATOM      3  N   UNL     1      16.167  11.870  36.404  0.00  0.00    +0.000 NA
ENDROOT
BRANCH   2   4
ATOM      4  C   UNL     1      14.673  12.632  34.664  0.00  0.00    +0.000 A 
ATOM      5  C   UNL     1      15.126  11.950  33.552  0.00  0.00    +0.000 A 
ATOM      6  C   UNL     1      14.817  12.368  32.273  0.00  0.00    +0.000 A 
ATOM      7  C   UNL     1      14.026  13.504  32.063  0.00  0.00    +0.000 A 
ATOM      8  N   UNL     1      13.680  13.973  30.789  0.00  0.00    +0.000 NA
ATOM      9  C   UNL     1      13.574  14.182  33.163  0.00  0.00    +0.000 A 
ATOM     10  C   UNL     1      13.896  13.748  34.434  0.00  0.00    +0.000 A 
ENDBRANCH   2   4
BRANCH   3  11
ATOM     11  N   UNL     1      16.468  11.454  37.715  0.00  0.00    +0.000 NA
ATOM     12  C   UNL     1      17.161  10.259  38.008  0.00  0.00    +0.000 C 
ATOM     13  O   UNL     1      17.519   9.546  37.048  0.00  0.00    +0.000 OA
BRANCH  12  14
ATOM     14  C   UNL     1      17.419   9.925  39.399  0.00  0.00    +0.000 A 
ATOM     15  C   UNL     1      16.435   9.525  40.290  0.00  0.00    +0.000 A 
ATOM     16  C   UNL     1      17.113   9.313  41.479  0.00  0.00    +0.000 A 
ATOM     17  C   UNL     1      16.563   8.872  42.785  0.00  0.00    +0.000 C 
ATOM     18  O   UNL     1      18.384   9.571  41.283  0.00  0.00    +0.000 OA
ATOM     19  C   UNL     1      18.621   9.941  40.056  0.00  0.00    +0.000 A 
ATOM     20  C   UNL     1      19.914  10.321  39.419  0.00  0.00    +0.000 C 
ENDBRANCH  12  14
ENDBRANCH   3  11
TORSDOF 3
ENDMDL
MODEL 2
REMARK VINA RESULT:      -7.0      2.622      8.313
REMARK  Name = 
REMARK  3 active torsions:
REMARK  status: ('A' for Active; 'I' for Inactive)
REMARK    1  A    between atoms: C_2  and  C_14
REMARK    2  A    between atoms: N_3  and  N_4
REMARK    3  A    between atoms: C_5  and  C_7
REMARK                            x       y       z     vdW  Elec       q    Type
REMARK                         _______ _______ _______ _____ _____    ______ ____
ROOT
ATOM      1  C   UNL     1      17.555  10.072  36.000  0.00  0.00    +0.000 C 
ATOM      2  C   UNL     1      16.817  10.635  37.158  0.00  0.00    +0.000 C 
ATOM      3  N   UNL     1      15.963  11.557  36.928  0.00  0.00    +0.000 NA
ENDROOT
BRANCH   2   4
ATOM      4  C   UNL     1      17.107  10.106  38.486  0.00  0.00    +0.000 A 
ATOM      5  C   UNL     1      18.372   9.680  38.842  0.00  0.00    +0.000 A 
ATOM      6  C   UNL     1      18.637   9.180  40.101  0.00  0.00    +0.000 A 
ATOM      7  C   UNL     1      17.625   9.091  41.063  0.00  0.00    +0.000 A 
ATOM      8  N   UNL     1      17.837   8.593  42.356  0.00  0.00    +0.000 NA
ATOM      9  C   UNL     1      16.369   9.512  40.714  0.00  0.00    +0.000 A 
ATOM     10  C   UNL     1      16.126  10.008  39.449  0.00  0.00    +0.000 A 
ENDBRANCH   2   4
BRANCH   3  11
ATOM     11  N   UNL     1      15.690  12.061  35.642  0.00  0.00    +0.000 NA
ATOM     12  C   UNL     1      14.459  12.655  35.289  0.00  0.00    +0.000 C 
ATOM     13  O   UNL     1      13.577  12.730  36.169  0.00  0.00    +0.000 OA
BRANCH  12  14
ATOM     14  C   UNL     1      14.284  13.144  33.931  0.00  0.00    +0.000 A 
ATOM     15  C   UNL     1      14.783  12.498  32.809  0.00  0.00    +0.000 A 
ATOM     16  C   UNL     1      14.390  13.298  31.749  0.00  0.00    +0.000 A 
ATOM     17  C   UNL     1      14.648  13.096  30.302  0.00  0.00    +0.000 C 
ATOM     18  O   UNL     1      13.719  14.320  32.226  0.00  0.00    +0.000 OA
ATOM     19  C   UNL     1      13.626  14.276  33.525  0.00  0.00    +0.000 A 
ATOM     20  C   UNL     1      12.956  15.228  34.455  0.00  0.00    +0.000 C 
ENDBRANCH  12  14
ENDBRANCH   3  11
TORSDOF 3
ENDMDL
MODEL 3
REMARK VINA RESULT:      -6.7      2.853      8.265
REMARK  Name = 
REMARK  3 active torsions:
REMARK  status: ('A' for Active; 'I' for Inactive)
REMARK    1  A    between atoms: C_2  and  C_14
REMARK    2  A    between atoms: N_3  and  N_4
REMARK    3  A    between atoms: C_5  and  C_7
REMARK                            x       y       z     vdW  Elec       q    Type
REMARK                         _______ _______ _______ _____ _____    ______ ____
ROOT
ATOM      1  C   UNL     1      15.048  11.691  37.514  0.00  0.00    +0.000 C 
ATOM      2  C   UNL     1      16.233  10.798  37.466  0.00  0.00    +0.000 C 
ATOM      3  N   UNL     1      16.747  10.554  36.322  0.00  0.00    +0.000 NA
ENDROOT
BRANCH   2   4
ATOM      4  C   UNL     1      16.738  10.254  38.721  0.00  0.00    +0.000 A 
ATOM      5  C   UNL     1      15.898   9.924  39.766  0.00  0.00    +0.000 A 
ATOM      6  C   UNL     1      16.385   9.409  40.950  0.00  0.00    +0.000 A 
ATOM      7  C   UNL     1      17.758   9.203  41.129  0.00  0.00    +0.000 A 
ATOM      8  N   UNL     1      18.308   8.684  42.308  0.00  0.00    +0.000 NA
ATOM      9  C   UNL     1      18.595   9.529  40.095  0.00  0.00    +0.000 A 
ATOM     10  C   UNL     1      18.086  10.043  38.919  0.00  0.00    +0.000 A 
ENDBRANCH   2   4
BRANCH   3  11
ATOM     11  N   UNL     1      16.251  11.084  35.116  0.00  0.00    +0.000 NA
ATOM     12  C   UNL     1      16.662  10.630  33.844  0.00  0.00    +0.000 C 
ATOM     13  O   UNL     1      17.508   9.713  33.800  0.00  0.00    +0.000 OA
BRANCH  12  14
ATOM     14  C   UNL     1      16.085  11.248  32.662  0.00  0.00    +0.000 A 
ATOM     15  C   UNL     1      16.585  12.400  32.073  0.00  0.00    +0.000 A 
ATOM     16  C   UNL     1      15.745  12.627  30.995  0.00  0.00    +0.000 A 
ATOM     17  C   UNL     1      15.802  13.729  30.003  0.00  0.00    +0.000 C 
ATOM     18  O   UNL     1      14.837  11.681  30.970  0.00  0.00    +0.000 OA
ATOM     19  C   UNL     1      14.994  10.830  31.945  0.00  0.00    +0.000 A 
ATOM     20  C   UNL     1      14.191   9.620  32.278  0.00  0.00    +0.000 C 
ENDBRANCH  12  14
ENDBRANCH   3  11
TORSDOF 3
ENDMDL
MODEL 4
REMARK VINA RESULT:      -6.6      1.595      2.522
REMARK  Name = 
REMARK  3 active torsions:
REMARK  status: ('A' for Active; 'I' for Inactive)
REMARK    1  A    between atoms: C_2  and  C_14
REMARK    2  A    between atoms: N_3  and  N_4
REMARK    3  A    between atoms: C_5  and  C_7
REMARK                            x       y       z     vdW  Elec       q    Type
REMARK                         _______ _______ _______ _____ _____    ______ ____
ROOT
ATOM      1  C   UNL     1      17.600   9.809  34.398  0.00  0.00    +0.000 C 
ATOM      2  C   UNL     1      16.551  10.771  34.818  0.00  0.00    +0.000 C 
ATOM      3  N   UNL     1      16.314  10.884  36.068  0.00  0.00    +0.000 NA
ENDROOT
BRANCH   2   4
ATOM      4  C   UNL     1      15.854  11.528  33.784  0.00  0.00    +0.000 A 
ATOM      5  C   UNL     1      16.164  11.392  32.445  0.00  0.00    +0.000 A 
ATOM      6  C   UNL     1      15.500  12.113  31.473  0.00  0.00    +0.000 A 
ATOM      7  C   UNL     1      14.482  13.009  31.818  0.00  0.00    +0.000 A 
ATOM      8  N   UNL     1      13.774  13.765  30.874  0.00  0.00    +0.000 NA
ATOM      9  C   UNL     1      14.171  13.146  33.144  0.00  0.00    +0.000 A 
ATOM     10  C   UNL     1      14.849  12.416  34.101  0.00  0.00    +0.000 A 
ENDBRANCH   2   4
BRANCH   3  11
ATOM     11  N   UNL     1      16.992  10.149  37.059  0.00  0.00    +0.000 NA
ATOM     12  C   UNL     1      17.985  10.706  37.893  0.00  0.00    +0.000 C 
ATOM     13  O   UNL     1      18.267  11.912  37.734  0.00  0.00    +0.000 OA
BRANCH  12  14
ATOM     14  C   UNL     1      18.622   9.855  38.885  0.00  0.00    +0.000 A 
ATOM     15  C   UNL     1      19.951   9.463  38.825  0.00  0.00    +0.000 A 
ATOM     16  C   UNL     1      20.128   8.675  39.950  0.00  0.00    +0.000 A 
ATOM     17  C   UNL     1      21.360   7.982  40.400  0.00  0.00    +0.000 C 
ATOM     18  O   UNL     1      18.991   8.621  40.602  0.00  0.00    +0.000 OA
ATOM     19  C   UNL     1      18.057   9.310  40.008  0.00  0.00    +0.000 A 
ATOM     20  C   UNL     1      16.636   9.512  40.409  0.00  0.00    +0.000 C 
ENDBRANCH  12  14
ENDBRANCH   3  11
TORSDOF 3
ENDMDL
MODEL 5
REMARK VINA RESULT:      -6.3     19.513     21.756
REMARK  Name = 
REMARK  3 active torsions:
REMARK  status: ('A' for Active; 'I' for Inactive)
REMARK    1  A    between atoms: C_2  and  C_14
REMARK    2  A    between atoms: N_3  and  N_4
REMARK    3  A    between atoms: C_5  and  C_7
REMARK                            x       y       z     vdW  Elec       q    Type
REMARK                         _______ _______ _______ _____ _____    ______ ____
ROOT
ATOM      1  C   UNL     1      34.012   0.896  32.555  0.00  0.00    +0.000 C 
ATOM      2  C   UNL     1      33.452   1.261  33.880  0.00  0.00    +0.000 C 
ATOM      3  N   UNL     1      32.877   0.342  34.555  0.00  0.00    +0.000 NA
ENDROOT
BRANCH   2   4
ATOM      4  C   UNL     1      33.591   2.640  34.332  0.00  0.00    +0.000 A 
ATOM      5  C   UNL     1      33.274   3.711  33.520  0.00  0.00    +0.000 A 
ATOM      6  C   UNL     1      33.409   5.014  33.957  0.00  0.00    +0.000 A 
ATOM      7  C   UNL     1      33.873   5.291  35.248  0.00  0.00    +0.000 A 
ATOM      8  N   UNL     1      34.029   6.592  35.743  0.00  0.00    +0.000 NA
ATOM      9  C   UNL     1      34.188   4.232  36.057  0.00  0.00    +0.000 A 
ATOM     10  C   UNL     1      34.047   2.937  35.599  0.00  0.00    +0.000 A 
ENDBRANCH   2   4
BRANCH   3  11
ATOM     11  N   UNL     1      32.748  -0.987  34.110  0.00  0.00    +0.000 NA
ATOM     12  C   UNL     1      33.557  -2.044  34.581  0.00  0.00    +0.000 C 
ATOM     13  O   UNL     1      34.426  -1.773  35.435  0.00  0.00    +0.000 OA
BRANCH  12  14
ATOM     14  C   UNL     1      33.337  -3.381  34.053  0.00  0.00    +0.000 A 
ATOM     15  C   UNL     1      33.678  -3.765  32.765  0.00  0.00    +0.000 A 
ATOM     16  C   UNL     1      33.299  -5.095  32.691  0.00  0.00    +0.000 A 
ATOM     17  C   UNL     1      33.424  -6.024  31.541  0.00  0.00    +0.000 C 
ATOM     18  O   UNL     1      32.782  -5.444  33.845  0.00  0.00    +0.000 OA
ATOM     19  C   UNL     1      32.781  -4.455  34.696  0.00  0.00    +0.000 A 
ATOM     20  C   UNL     1      32.290  -4.423  36.102  0.00  0.00    +0.000 C 
ENDBRANCH  12  14
ENDBRANCH   3  11
TORSDOF 3
ENDMDL
MODEL 6
REMARK VINA RESULT:      -6.2      1.768      2.174
REMARK  Name = 
REMARK  3 active torsions:
REMARK  status: ('A' for Active; 'I' for Inactive)
REMARK    1  A    between atoms: C_2  and  C_14
REMARK    2  A    between atoms: N_3  and  N_4
REMARK    3  A    between atoms: C_5  and  C_7
REMARK                            x       y       z     vdW  Elec       q    Type
REMARK                         _______ _______ _______ _____ _____    ______ ____
ROOT
ATOM      1  C   UNL     1      15.526  11.794  36.790  0.00  0.00    +0.000 C 
ATOM      2  C   UNL     1      16.181  11.138  35.631  0.00  0.00    +0.000 C 
ATOM      3  N   UNL     1      17.065  10.248  35.873  0.00  0.00    +0.000 NA
ENDROOT
BRANCH   2   4
ATOM      4  C   UNL     1      15.780  11.546  34.290  0.00  0.00    +0.000 A 
ATOM      5  C   UNL     1      14.804  12.499  34.077  0.00  0.00    +0.000 A 
ATOM      6  C   UNL     1      14.430  12.878  32.803  0.00  0.00    +0.000 A 
ATOM      7  C   UNL     1      15.035  12.304  31.679  0.00  0.00    +0.000 A 
ATOM      8  N   UNL     1      14.696  12.651  30.365  0.00  0.00    +0.000 NA
ATOM      9  C   UNL     1      16.004  11.359  31.886  0.00  0.00    +0.000 A 
ATOM     10  C   UNL     1      16.362  10.993  33.169  0.00  0.00    +0.000 A 
ENDBRANCH   2   4
BRANCH   3  11
ATOM     11  N   UNL     1      17.446   9.862  37.172  0.00  0.00    +0.000 NA
ATOM     12  C   UNL     1      18.779   9.570  37.533  0.00  0.00    +0.000 C 
ATOM     13  O   UNL     1      19.654   9.662  36.648  0.00  0.00    +0.000 OA
BRANCH  12  14
ATOM     14  C   UNL     1      19.062   9.180  38.905  0.00  0.00    +0.000 A 
ATOM     15  C   UNL     1      18.692   7.960  39.451  0.00  0.00    +0.000 A 
ATOM     16  C   UNL     1      19.152   8.014  40.756  0.00  0.00    +0.000 A 
ATOM     17  C   UNL     1      19.037   6.980  41.814  0.00  0.00    +0.000 C 
ATOM     18  O   UNL     1      19.739   9.172  40.942  0.00  0.00    +0.000 OA
ATOM     19  C   UNL     1      19.713   9.908  39.866  0.00  0.00    +0.000 A 
ATOM     20  C   UNL     1      20.259  11.277  39.648  0.00  0.00    +0.000 C 
ENDBRANCH  12  14
ENDBRANCH   3  11
TORSDOF 3
ENDMDL
MODEL 7
REMARK VINA RESULT:      -6.2     21.958     22.940
REMARK  Name = 
REMARK  3 active torsions:
REMARK  status: ('A' for Active; 'I' for Inactive)
REMARK    1  A    between atoms: C_2  and  C_14
REMARK    2  A    between atoms: N_3  and  N_4
REMARK    3  A    between atoms: C_5  and  C_7
REMARK                            x       y       z     vdW  Elec       q    Type
REMARK                         _______ _______ _______ _____ _____    ______ ____
ROOT
ATOM      1  C   UNL     1      15.001 -10.292  26.508  0.00  0.00    +0.000 C 
ATOM      2  C   UNL     1      14.222  -9.101  26.087  0.00  0.00    +0.000 C 
ATOM      3  N   UNL     1      14.870  -8.098  25.632  0.00  0.00    +0.000 NA
ENDROOT
BRANCH   2   4
ATOM      4  C   UNL     1      12.770  -9.144  26.216  0.00  0.00    +0.000 A 
ATOM      5  C   UNL     1      11.934  -8.963  25.132  0.00  0.00    +0.000 A 
ATOM      6  C   UNL     1      10.561  -9.005  25.264  0.00  0.00    +0.000 A 
ATOM      7  C   UNL     1       9.969  -9.236  26.511  0.00  0.00    +0.000 A 
ATOM      8  N   UNL     1       8.582  -9.289  26.703  0.00  0.00    +0.000 NA
ATOM      9  C   UNL     1      10.794  -9.416  27.589  0.00  0.00    +0.000 A 
ATOM     10  C   UNL     1      12.166  -9.369  27.435  0.00  0.00    +0.000 A 
ENDBRANCH   2   4
BRANCH   3  11
ATOM     11  N   UNL     1      16.272  -8.066  25.512  0.00  0.00    +0.000 NA
ATOM     12  C   UNL     1      17.103  -7.287  26.346  0.00  0.00    +0.000 C 
ATOM     13  O   UNL     1      16.555  -6.597  27.230  0.00  0.00    +0.000 OA
BRANCH  12  14
ATOM     14  C   UNL     1      18.541  -7.329  26.134  0.00  0.00    +0.000 A 
ATOM     15  C   UNL     1      19.257  -8.502  25.944  0.00  0.00    +0.000 A 
ATOM     16  C   UNL     1      20.567  -8.081  25.784  0.00  0.00    +0.000 A 
ATOM     17  C   UNL     1      21.775  -8.911  25.549  0.00  0.00    +0.000 C 
ATOM     18  O   UNL     1      20.598  -6.773  25.875  0.00  0.00    +0.000 OA
ATOM     19  C   UNL     1      19.412  -6.273  26.084  0.00  0.00    +0.000 A 
ATOM     20  C   UNL     1      19.006  -4.849  26.246  0.00  0.00    +0.000 C 
ENDBRANCH  12  14
ENDBRANCH   3  11
TORSDOF 3
ENDMDL
MODEL 8
REMARK VINA RESULT:      -6.1      2.003      2.806
REMARK  Name = 
REMARK  3 active torsions:
REMARK  status: ('A' for Active; 'I' for Inactive)
REMARK    1  A    between atoms: C_2  and  C_14
REMARK    2  A    between atoms: N_3  and  N_4
REMARK    3  A    between atoms: C_5  and  C_7
REMARK                            x       y       z     vdW  Elec       q    Type
REMARK                         _______ _______ _______ _____ _____    ______ ____
ROOT
ATOM      1  C   UNL     1      15.093  11.285  37.736  0.00  0.00    +0.000 C 
ATOM      2  C   UNL     1      16.261  10.802  36.958  0.00  0.00    +0.000 C 
ATOM      3  N   UNL     1      17.237  10.294  37.606  0.00  0.00    +0.000 NA
ENDROOT
BRANCH   2   4
ATOM      4  C   UNL     1      16.226  10.934  35.507  0.00  0.00    +0.000 A 
ATOM      5  C   UNL     1      17.109  10.257  34.689  0.00  0.00    +0.000 A 
ATOM      6  C   UNL     1      17.069  10.389  33.316  0.00  0.00    +0.000 A 
ATOM      7  C   UNL     1      16.123  11.219  32.704  0.00  0.00    +0.000 A 
ATOM      8  N   UNL     1      16.036  11.390  31.316  0.00  0.00    +0.000 NA
ATOM      9  C   UNL     1      15.245  11.893  33.511  0.00  0.00    +0.000 A 
ATOM     10  C   UNL     1      15.303  11.747  34.883  0.00  0.00    +0.000 A 
ENDBRANCH   2   4
BRANCH   3  11
ATOM     11  N   UNL     1      17.261  10.170  39.008  0.00  0.00    +0.000 NA
ATOM     12  C   UNL     1      17.938   9.131  39.682  0.00  0.00    +0.000 C 
ATOM     13  O   UNL     1      18.541   8.286  38.990  0.00  0.00    +0.000 OA
BRANCH  12  14
ATOM     14  C   UNL     1      17.899   9.099  41.135  0.00  0.00    +0.000 A 
ATOM     15  C   UNL     1      18.880   9.654  41.945  0.00  0.00    +0.000 A 
ATOM     16  C   UNL     1      18.445   9.398  43.235  0.00  0.00    +0.000 A 
ATOM     17  C   UNL     1      19.102   9.764  44.514  0.00  0.00    +0.000 C 
ATOM     18  O   UNL     1      17.307   8.749  43.169  0.00  0.00    +0.000 OA
ATOM     19  C   UNL     1      16.935   8.545  41.936  0.00  0.00    +0.000 A 
ATOM     20  C   UNL     1      15.719   7.855  41.421  0.00  0.00    +0.000 C 
ENDBRANCH  12  14
ENDBRANCH   3  11
TORSDOF 3
ENDMDL
MODEL 9
REMARK VINA RESULT:      -6.1     23.629     24.767
REMARK  Name = 
REMARK  3 active torsions:
REMARK  status: ('A' for Active; 'I' for Inactive)
REMARK    1  A    between atoms: C_2  and  C_14
REMARK    2  A    between atoms: N_3  and  N_4
REMARK    3  A    between atoms: C_5  and  C_7
REMARK                            x       y       z     vdW  Elec       q    Type
REMARK                         _______ _______ _______ _____ _____    ______ ____
ROOT
ATOM      1  C   UNL     1      22.445  -9.272  25.372  0.00  0.00    +0.000 C 
ATOM      2  C   UNL     1      22.052  -7.845  25.269  0.00  0.00    +0.000 C 
ATOM      3  N   UNL     1      22.892  -7.033  24.751  0.00  0.00    +0.000 NA
ENDROOT
BRANCH   2   4
ATOM      4  C   UNL     1      20.737  -7.453  25.762  0.00  0.00    +0.000 A 
ATOM      5  C   UNL     1      20.286  -6.150  25.687  0.00  0.00    +0.000 A 
ATOM      6  C   UNL     1      19.040  -5.788  26.156  0.00  0.00    +0.000 A 
ATOM      7  C   UNL     1      18.186  -6.740  26.725  0.00  0.00    +0.000 A 
ATOM      8  N   UNL     1      16.911  -6.430  27.217  0.00  0.00    +0.000 NA
ATOM      9  C   UNL     1      18.628  -8.034  26.801  0.00  0.00    +0.000 A 
ATOM     10  C   UNL     1      19.879  -8.374  26.326  0.00  0.00    +0.000 A 
ENDBRANCH   2   4
BRANCH   3  11
ATOM     11  N   UNL     1      24.160  -7.421  24.279  0.00  0.00    +0.000 NA
ATOM     12  C   UNL     1      24.422  -7.726  22.925  0.00  0.00    +0.000 C 
ATOM     13  O   UNL     1      23.474  -7.643  22.118  0.00  0.00    +0.000 OA
BRANCH  12  14
ATOM     14  C   UNL     1      25.770  -8.115  22.545  0.00  0.00    +0.000 A 
ATOM     15  C   UNL     1      26.864  -7.265  22.610  0.00  0.00    +0.000 A 
ATOM     16  C   UNL     1      27.924  -8.036  22.163  0.00  0.00    +0.000 A 
ATOM     17  C   UNL     1      29.348  -7.644  22.019  0.00  0.00    +0.000 C 
ATOM     18  O   UNL     1      27.473  -9.232  21.866  0.00  0.00    +0.000 OA
ATOM     19  C   UNL     1      26.190  -9.332  22.077  0.00  0.00    +0.000 A 
ATOM     20  C   UNL     1      25.292 -10.503  21.873  0.00  0.00    +0.000 C 
ENDBRANCH  12  14
ENDBRANCH   3  11
TORSDOF 3
ENDMDL
MODEL 10
REMARK VINA RESULT:      -6.1      3.084      8.602
REMARK  Name = 
REMARK  3 active torsions:
REMARK  status: ('A' for Active; 'I' for Inactive)
REMARK    1  A    between atoms: C_2  and  C_14
REMARK    2  A    between atoms: N_3  and  N_4
REMARK    3  A    between atoms: C_5  and  C_7
REMARK                            x       y       z     vdW  Elec       q    Type
REMARK                         _______ _______ _______ _____ _____    ______ ____
ROOT
ATOM      1  C   UNL     1      17.217   9.906  38.962  0.00  0.00    +0.000 C 
ATOM      2  C   UNL     1      18.499   9.310  38.512  0.00  0.00    +0.000 C 
ATOM      3  N   UNL     1      18.868   9.533  37.309  0.00  0.00    +0.000 NA
ENDROOT
BRANCH   2   4
ATOM      4  C   UNL     1      19.260   8.508  39.463  0.00  0.00    +0.000 A 
ATOM      5  C   UNL     1      20.477   8.927  39.963  0.00  0.00    +0.000 A 
ATOM      6  C   UNL     1      21.190   8.161  40.863  0.00  0.00    +0.000 A 
ATOM      7  C   UNL     1      20.696   6.927  41.302  0.00  0.00    +0.000 A 
ATOM      8  N   UNL     1      21.376   6.110  42.214  0.00  0.00    +0.000 NA
ATOM      9  C   UNL     1      19.489   6.508  40.809  0.00  0.00    +0.000 A 
ATOM     10  C   UNL     1      18.792   7.290  39.908  0.00  0.00    +0.000 A 
ENDBRANCH   2   4
BRANCH   3  11
ATOM     11  N   UNL     1      18.127  10.308  36.398  0.00  0.00    +0.000 NA
ATOM     12  C   UNL     1      17.394   9.754  35.326  0.00  0.00    +0.000 C 
ATOM     13  O   UNL     1      17.412   8.513  35.191  0.00  0.00    +0.000 OA
BRANCH  12  14
ATOM     14  C   UNL     1      16.662  10.648  34.444  0.00  0.00    +0.000 A 
ATOM     15  C   UNL     1      16.900  10.751  33.082  0.00  0.00    +0.000 A 
ATOM     16  C   UNL     1      15.993  11.702  32.645  0.00  0.00    +0.000 A 
ATOM     17  C   UNL     1      15.794  12.218  31.268  0.00  0.00    +0.000 C 
ATOM     18  O   UNL     1      15.291  12.111  33.676  0.00  0.00    +0.000 OA
ATOM     19  C   UNL     1      15.651  11.512  34.776  0.00  0.00    +0.000 A 
ATOM     20  C   UNL     1      15.118  11.679  36.157  0.00  0.00    +0.000 C 
ENDBRANCH  12  14
ENDBRANCH   3  11
TORSDOF 3
ENDMDL
