MODEL 1
REMARK VINA RESULT:      -6.9      0.000      0.000
REMARK  Name = 
REMARK  2 active torsions:
REMARK  status: ('A' for Active; 'I' for Inactive)
REMARK    1  A    between atoms: C_8  and  C_9
REMARK    2  A    between atoms: C_17  and  C_18
REMARK                            x       y       z     vdW  Elec       q    Type
REMARK                         _______ _______ _______ _____ _____    ______ ____
ROOT
ATOM      1  C   UNL     1      30.207  21.897  26.971  0.00  0.00    +0.000 C 
ATOM      2  C   UNL     1      29.706  22.557  25.711  0.00  0.00    +0.000 A 
ATOM      3  C   UNL     1      30.573  22.946  24.717  0.00  0.00    +0.000 A 
ATOM      4  C   UNL     1      30.097  23.547  23.574  0.00  0.00    +0.000 A 
ATOM      5  C   UNL     1      28.775  23.750  23.439  0.00  0.00    +0.000 A 
ATOM      6  C   UNL     1      27.939  23.377  24.397  0.00  0.00    +0.000 A 
ATOM      7  C   UNL     1      28.348  22.780  25.543  0.00  0.00    +0.000 A 
ATOM      8  C   UNL     1      26.350  23.649  24.231  0.00  0.00    +0.000 C 
ATOM      9  C   UNL     1      26.557  25.209  23.827  0.00  0.00    +0.000 A 
ATOM     10  C   UNL     1      25.798  26.091  24.557  0.00  0.00    +0.000 A 
ATOM     11  C   UNL     1      25.975  27.425  24.230  0.00  0.00    +0.000 A 
ATOM     12  C   UNL     1      26.845  27.837  23.247  0.00  0.00    +0.000 A 
ATOM     13  C   UNL     1      27.562  26.875  22.570  0.00  0.00    +0.000 A 
ATOM     14  C   UNL     1      27.389  25.574  22.889  0.00  0.00    +0.000 A 
ATOM     15  C   UNL     1      28.171  24.427  22.116  0.00  0.00    +0.000 C 
ENDROOT
BRANCH   8  16
ATOM     16  C   UNL     1      26.260  23.119  22.657  0.00  0.00    +0.000 C 
ATOM     17  O   UNL     1      24.956  22.622  22.645  0.00  0.00    +0.000 OA
ENDBRANCH   8  16
BRANCH  15  18
ATOM     18  C   UNL     1      29.476  25.352  21.702  0.00  0.00    +0.000 C 
ATOM     19  O   UNL     1      29.738  24.879  20.434  0.00  0.00    +0.000 OA
ENDBRANCH  15  18
TORSDOF 2
ENDMDL
MODEL 2
REMARK VINA RESULT:      -6.7     32.222     34.115
REMARK  Name = 
REMARK  2 active torsions:
REMARK  status: ('A' for Active; 'I' for Inactive)
REMARK    1  A    between atoms: C_8  and  C_9
REMARK    2  A    between atoms: C_17  and  C_18
REMARK                            x       y       z     vdW  Elec       q    Type
REMARK                         _______ _______ _______ _____ _____    ______ ____
ROOT
ATOM      1  C   UNL     1      19.256 -10.289  31.554  0.00  0.00    +0.000 C 
ATOM      2  C   UNL     1      19.380  -9.959  30.088  0.00  0.00    +0.000 A 
ATOM      3  C   UNL     1      20.477 -10.356  29.359  0.00  0.00    +0.000 A 
ATOM      4  C   UNL     1      20.572 -10.046  28.021  0.00  0.00    +0.000 A 
ATOM      5  C   UNL     1      19.581  -9.352  27.434  0.00  0.00    +0.000 A 
ATOM      6  C   UNL     1      18.525  -8.969  28.137  0.00  0.00    +0.000 A 
ATOM      7  C   UNL     1      18.375  -9.245  29.455  0.00  0.00    +0.000 A 
ATOM      8  C   UNL     1      17.350  -8.113  27.421  0.00  0.00    +0.000 C 
ATOM      9  C   UNL     1      18.385  -7.044  26.770  0.00  0.00    +0.000 A 
ATOM     10  C   UNL     1      18.070  -5.729  27.010  0.00  0.00    +0.000 A 
ATOM     11  C   UNL     1      18.953  -4.808  26.470  0.00  0.00    +0.000 A 
ATOM     12  C   UNL     1      20.062  -5.183  25.747  0.00  0.00    +0.000 A 
ATOM     13  C   UNL     1      20.292  -6.528  25.560  0.00  0.00    +0.000 A 
ATOM     14  C   UNL     1      19.430  -7.425  26.087  0.00  0.00    +0.000 A 
ATOM     15  C   UNL     1      19.638  -8.986  25.873  0.00  0.00    +0.000 C 
ENDROOT
BRANCH   8  16
ATOM     16  C   UNL     1      17.268  -9.061  26.058  0.00  0.00    +0.000 C 
ATOM     17  O   UNL     1      16.134  -8.515  25.453  0.00  0.00    +0.000 OA
ENDBRANCH   8  16
BRANCH  15  18
ATOM     18  C   UNL     1      21.279  -8.924  25.700  0.00  0.00    +0.000 C 
ATOM     19  O   UNL     1      21.450  -9.696  24.570  0.00  0.00    +0.000 OA
ENDBRANCH  15  18
TORSDOF 2
ENDMDL
MODEL 3
REMARK VINA RESULT:      -6.2      1.654      5.199
REMARK  Name = 
REMARK  2 active torsions:
REMARK  status: ('A' for Active; 'I' for Inactive)
REMARK    1  A    between atoms: C_8  and  C_9
REMARK    2  A    between atoms: C_17  and  C_18
REMARK                            x       y       z     vdW  Elec       q    Type
REMARK                         _______ _______ _______ _____ _____    ______ ____
ROOT
ATOM      1  C   UNL     1      27.086  28.961  22.867  0.00  0.00    +0.000 C 
ATOM      2  C   UNL     1      26.892  27.669  23.621  0.00  0.00    +0.000 A 
ATOM      3  C   UNL     1      26.484  27.664  24.935  0.00  0.00    +0.000 A 
ATOM      4  C   UNL     1      26.312  26.475  25.605  0.00  0.00    +0.000 A 
ATOM      5  C   UNL     1      26.546  25.317  24.963  0.00  0.00    +0.000 A 
ATOM      6  C   UNL     1      26.940  25.321  23.697  0.00  0.00    +0.000 A 
ATOM      7  C   UNL     1      27.125  26.459  22.985  0.00  0.00    +0.000 A 
ATOM      8  C   UNL     1      27.240  23.919  22.944  0.00  0.00    +0.000 C 
ATOM      9  C   UNL     1      28.189  23.362  24.139  0.00  0.00    +0.000 A 
ATOM     10  C   UNL     1      29.415  22.903  23.725  0.00  0.00    +0.000 A 
ATOM     11  C   UNL     1      30.239  22.438  24.737  0.00  0.00    +0.000 A 
ATOM     12  C   UNL     1      29.856  22.435  26.059  0.00  0.00    +0.000 A 
ATOM     13  C   UNL     1      28.604  22.915  26.374  0.00  0.00    +0.000 A 
ATOM     14  C   UNL     1      27.802  23.369  25.386  0.00  0.00    +0.000 A 
ATOM     15  C   UNL     1      26.339  23.906  25.697  0.00  0.00    +0.000 C 
ENDROOT
BRANCH   8  16
ATOM     16  C   UNL     1      25.874  23.145  23.492  0.00  0.00    +0.000 C 
ATOM     17  O   UNL     1      25.318  22.748  22.275  0.00  0.00    +0.000 OA
ENDBRANCH   8  16
BRANCH  15  18
ATOM     18  C   UNL     1      26.654  24.391  27.244  0.00  0.00    +0.000 C 
ATOM     19  O   UNL     1      25.551  23.890  27.903  0.00  0.00    +0.000 OA
ENDBRANCH  15  18
TORSDOF 2
ENDMDL
MODEL 4
REMARK VINA RESULT:      -6.1     32.173     34.311
REMARK  Name = 
REMARK  2 active torsions:
REMARK  status: ('A' for Active; 'I' for Inactive)
REMARK    1  A    between atoms: C_8  and  C_9
REMARK    2  A    between atoms: C_17  and  C_18
REMARK                            x       y       z     vdW  Elec       q    Type
REMARK                         _______ _______ _______ _____ _____    ______ ____
ROOT
ATOM      1  C   UNL     1      23.448  -6.474  24.301  0.00  0.00    +0.000 C 
ATOM      2  C   UNL     1      22.123  -6.881  24.894  0.00  0.00    +0.000 A 
ATOM      3  C   UNL     1      21.178  -5.943  25.239  0.00  0.00    +0.000 A 
ATOM      4  C   UNL     1      19.974  -6.334  25.780  0.00  0.00    +0.000 A 
ATOM      5  C   UNL     1      19.730  -7.642  25.966  0.00  0.00    +0.000 A 
ATOM      6  C   UNL     1      20.641  -8.547  25.634  0.00  0.00    +0.000 A 
ATOM      7  C   UNL     1      21.842  -8.223  25.098  0.00  0.00    +0.000 A 
ATOM      8  C   UNL     1      20.342 -10.120  25.886  0.00  0.00    +0.000 C 
ATOM      9  C   UNL     1      19.877  -9.889  27.426  0.00  0.00    +0.000 A 
ATOM     10  C   UNL     1      20.503 -10.704  28.337  0.00  0.00    +0.000 A 
ATOM     11  C   UNL     1      20.124 -10.508  29.655  0.00  0.00    +0.000 A 
ATOM     12  C   UNL     1      19.190  -9.567  30.024  0.00  0.00    +0.000 A 
ATOM     13  C   UNL     1      18.617  -8.798  29.035  0.00  0.00    +0.000 A 
ATOM     14  C   UNL     1      18.988  -8.990  27.750  0.00  0.00    +0.000 A 
ATOM     15  C   UNL     1      18.334  -8.147  26.572  0.00  0.00    +0.000 C 
ENDROOT
BRANCH   8  16
ATOM     16  C   UNL     1      18.794 -10.089  25.278  0.00  0.00    +0.000 C 
ATOM     17  O   UNL     1      18.535 -11.459  25.213  0.00  0.00    +0.000 OA
ENDBRANCH   8  16
BRANCH  15  18
ATOM     18  C   UNL     1      17.973  -6.819  27.485  0.00  0.00    +0.000 C 
ATOM     19  O   UNL     1      16.680  -6.567  27.078  0.00  0.00    +0.000 OA
ENDBRANCH  15  18
TORSDOF 2
ENDMDL
MODEL 5
REMARK VINA RESULT:      -6.0      1.959      4.869
REMARK  Name = 
REMARK  2 active torsions:
REMARK  status: ('A' for Active; 'I' for Inactive)
REMARK    1  A    between atoms: C_8  and  C_9
REMARK    2  A    between atoms: C_17  and  C_18
REMARK                            x       y       z     vdW  Elec       q    Type
REMARK                         _______ _______ _______ _____ _____    ______ ____
ROOT
ATOM      1  C   UNL     1      29.460  27.057  21.779  0.00  0.00    +0.000 C 
ATOM      2  C   UNL     1      28.323  26.549  22.629  0.00  0.00    +0.000 A 
ATOM      3  C   UNL     1      27.432  27.416  23.219  0.00  0.00    +0.000 A 
ATOM      4  C   UNL     1      26.401  26.933  23.992  0.00  0.00    +0.000 A 
ATOM      5  C   UNL     1      26.272  25.606  24.164  0.00  0.00    +0.000 A 
ATOM      6  C   UNL     1      27.132  24.771  23.597  0.00  0.00    +0.000 A 
ATOM      7  C   UNL     1      28.165  25.186  22.826  0.00  0.00    +0.000 A 
ATOM      8  C   UNL     1      26.978  23.175  23.833  0.00  0.00    +0.000 C 
ATOM      9  C   UNL     1      26.857  23.322  25.446  0.00  0.00    +0.000 A 
ATOM     10  C   UNL     1      27.712  22.515  26.156  0.00  0.00    +0.000 A 
ATOM     11  C   UNL     1      27.627  22.641  27.533  0.00  0.00    +0.000 A 
ATOM     12  C   UNL     1      26.751  23.509  28.144  0.00  0.00    +0.000 A 
ATOM     13  C   UNL     1      25.933  24.276  27.344  0.00  0.00    +0.000 A 
ATOM     14  C   UNL     1      26.017  24.153  26.001  0.00  0.00    +0.000 A 
ATOM     15  C   UNL     1      25.074  24.996  25.039  0.00  0.00    +0.000 C 
ENDROOT
BRANCH   8  16
ATOM     16  C   UNL     1      25.335  23.133  23.583  0.00  0.00    +0.000 C 
ATOM     17  O   UNL     1      25.305  22.737  22.245  0.00  0.00    +0.000 OA
ENDBRANCH   8  16
BRANCH  15  18
ATOM     18  C   UNL     1      24.858  26.267  26.071  0.00  0.00    +0.000 C 
ATOM     19  O   UNL     1      23.496  26.451  25.976  0.00  0.00    +0.000 OA
ENDBRANCH  15  18
TORSDOF 2
ENDMDL
MODEL 6
REMARK VINA RESULT:      -5.9      2.068      3.392
REMARK  Name = 
REMARK  2 active torsions:
REMARK  status: ('A' for Active; 'I' for Inactive)
REMARK    1  A    between atoms: C_8  and  C_9
REMARK    2  A    between atoms: C_17  and  C_18
REMARK                            x       y       z     vdW  Elec       q    Type
REMARK                         _______ _______ _______ _____ _____    ______ ____
ROOT
ATOM      1  C   UNL     1      33.102  24.394  25.451  0.00  0.00    +0.000 C 
ATOM      2  C   UNL     1      31.847  24.970  24.845  0.00  0.00    +0.000 A 
ATOM      3  C   UNL     1      31.520  26.296  25.008  0.00  0.00    +0.000 A 
ATOM      4  C   UNL     1      30.370  26.802  24.446  0.00  0.00    +0.000 A 
ATOM      5  C   UNL     1      29.570  25.988  23.737  0.00  0.00    +0.000 A 
ATOM      6  C   UNL     1      29.884  24.709  23.581  0.00  0.00    +0.000 A 
ATOM      7  C   UNL     1      31.002  24.154  24.108  0.00  0.00    +0.000 A 
ATOM      8  C   UNL     1      28.898  23.735  22.742  0.00  0.00    +0.000 C 
ATOM      9  C   UNL     1      27.574  24.203  23.560  0.00  0.00    +0.000 A 
ATOM     10  C   UNL     1      26.823  23.170  24.064  0.00  0.00    +0.000 A 
ATOM     11  C   UNL     1      25.698  23.557  24.774  0.00  0.00    +0.000 A 
ATOM     12  C   UNL     1      25.358  24.877  24.959  0.00  0.00    +0.000 A 
ATOM     13  C   UNL     1      26.176  25.841  24.412  0.00  0.00    +0.000 A 
ATOM     14  C   UNL     1      27.273  25.463  23.720  0.00  0.00    +0.000 A 
ATOM     15  C   UNL     1      28.230  26.538  23.047  0.00  0.00    +0.000 C 
ENDROOT
BRANCH   8  16
ATOM     16  C   UNL     1      28.655  24.795  21.485  0.00  0.00    +0.000 C 
ATOM     17  O   UNL     1      29.740  24.459  20.674  0.00  0.00    +0.000 OA
ENDBRANCH   8  16
BRANCH  15  18
ATOM     18  C   UNL     1      27.897  27.760  24.106  0.00  0.00    +0.000 C 
ATOM     19  O   UNL     1      27.705  28.812  23.237  0.00  0.00    +0.000 OA
ENDBRANCH  15  18
TORSDOF 2
ENDMDL
MODEL 7
REMARK VINA RESULT:      -5.9      1.035      5.061
REMARK  Name = 
REMARK  2 active torsions:
REMARK  status: ('A' for Active; 'I' for Inactive)
REMARK    1  A    between atoms: C_8  and  C_9
REMARK    2  A    between atoms: C_17  and  C_18
REMARK                            x       y       z     vdW  Elec       q    Type
REMARK                         _______ _______ _______ _____ _____    ______ ____
ROOT
ATOM      1  C   UNL     1      26.807  29.502  25.001  0.00  0.00    +0.000 C 
ATOM      2  C   UNL     1      26.930  28.105  24.448  0.00  0.00    +0.000 A 
ATOM      3  C   UNL     1      25.926  27.181  24.616  0.00  0.00    +0.000 A 
ATOM      4  C   UNL     1      26.057  25.909  24.104  0.00  0.00    +0.000 A 
ATOM      5  C   UNL     1      27.177  25.581  23.438  0.00  0.00    +0.000 A 
ATOM      6  C   UNL     1      28.147  26.471  23.277  0.00  0.00    +0.000 A 
ATOM      7  C   UNL     1      28.074  27.736  23.757  0.00  0.00    +0.000 A 
ATOM      8  C   UNL     1      29.500  26.053  22.491  0.00  0.00    +0.000 C 
ATOM      9  C   UNL     1      29.711  24.699  23.365  0.00  0.00    +0.000 A 
ATOM     10  C   UNL     1      30.963  24.564  23.911  0.00  0.00    +0.000 A 
ATOM     11  C   UNL     1      31.151  23.419  24.669  0.00  0.00    +0.000 A 
ATOM     12  C   UNL     1      30.156  22.487  24.859  0.00  0.00    +0.000 A 
ATOM     13  C   UNL     1      28.932  22.713  24.269  0.00  0.00    +0.000 A 
ATOM     14  C   UNL     1      28.751  23.830  23.530  0.00  0.00    +0.000 A 
ATOM     15  C   UNL     1      27.366  24.119  22.806  0.00  0.00    +0.000 C 
ENDROOT
BRANCH   8  16
ATOM     16  C   UNL     1      28.728  25.280  21.239  0.00  0.00    +0.000 C 
ATOM     17  O   UNL     1      29.825  24.973  20.432  0.00  0.00    +0.000 OA
ENDBRANCH   8  16
BRANCH  15  18
ATOM     18  C   UNL     1      26.429  23.273  23.870  0.00  0.00    +0.000 C 
ATOM     19  O   UNL     1      25.498  22.722  23.016  0.00  0.00    +0.000 OA
ENDBRANCH  15  18
TORSDOF 2
ENDMDL
MODEL 8
REMARK VINA RESULT:      -5.9      1.900      4.826
REMARK  Name = 
REMARK  2 active torsions:
REMARK  status: ('A' for Active; 'I' for Inactive)
REMARK    1  A    between atoms: C_8  and  C_9
REMARK    2  A    between atoms: C_17  and  C_18
REMARK                            x       y       z     vdW  Elec       q    Type
REMARK                         _______ _______ _______ _____ _____    ______ ____
ROOT
ATOM      1  C   UNL     1      29.824  26.913  19.609  0.00  0.00    +0.000 C 
ATOM      2  C   UNL     1      29.206  26.523  20.927  0.00  0.00    +0.000 A 
ATOM      3  C   UNL     1      28.805  27.474  21.836  0.00  0.00    +0.000 A 
ATOM      4  C   UNL     1      28.243  27.097  23.035  0.00  0.00    +0.000 A 
ATOM      5  C   UNL     1      28.089  25.790  23.308  0.00  0.00    +0.000 A 
ATOM      6  C   UNL     1      28.476  24.873  22.433  0.00  0.00    +0.000 A 
ATOM      7  C   UNL     1      29.035  25.182  21.237  0.00  0.00    +0.000 A 
ATOM      8  C   UNL     1      28.305  23.301  22.786  0.00  0.00    +0.000 C 
ATOM      9  C   UNL     1      29.004  23.448  24.245  0.00  0.00    +0.000 A 
ATOM     10  C   UNL     1      30.015  22.550  24.485  0.00  0.00    +0.000 A 
ATOM     11  C   UNL     1      30.627  22.674  25.722  0.00  0.00    +0.000 A 
ATOM     12  C   UNL     1      30.249  23.626  26.641  0.00  0.00    +0.000 A 
ATOM     13  C   UNL     1      29.223  24.481  26.307  0.00  0.00    +0.000 A 
ATOM     14  C   UNL     1      28.626  24.359  25.100  0.00  0.00    +0.000 A 
ATOM     15  C   UNL     1      27.419  25.304  24.682  0.00  0.00    +0.000 C 
ENDROOT
BRANCH   8  16
ATOM     16  C   UNL     1      26.755  23.435  23.370  0.00  0.00    +0.000 C 
ATOM     17  O   UNL     1      26.036  23.058  22.234  0.00  0.00    +0.000 OA
ENDBRANCH   8  16
BRANCH  15  18
ATOM     18  C   UNL     1      27.859  26.583  25.630  0.00  0.00    +0.000 C 
ATOM     19  O   UNL     1      26.649  26.907  26.206  0.00  0.00    +0.000 OA
ENDBRANCH  15  18
TORSDOF 2
ENDMDL
MODEL 9
REMARK VINA RESULT:      -5.8      1.698      2.644
REMARK  Name = 
REMARK  2 active torsions:
REMARK  status: ('A' for Active; 'I' for Inactive)
REMARK    1  A    between atoms: C_8  and  C_9
REMARK    2  A    between atoms: C_17  and  C_18
REMARK                            x       y       z     vdW  Elec       q    Type
REMARK                         _______ _______ _______ _____ _____    ______ ____
ROOT
ATOM      1  C   UNL     1      31.918  23.220  24.492  0.00  0.00    +0.000 C 
ATOM      2  C   UNL     1      30.632  23.931  24.154  0.00  0.00    +0.000 A 
ATOM      3  C   UNL     1      30.627  25.253  23.774  0.00  0.00    +0.000 A 
ATOM      4  C   UNL     1      29.443  25.884  23.468  0.00  0.00    +0.000 A 
ATOM      5  C   UNL     1      28.291  25.196  23.545  0.00  0.00    +0.000 A 
ATOM      6  C   UNL     1      28.295  23.922  23.912  0.00  0.00    +0.000 A 
ATOM      7  C   UNL     1      29.429  23.247  24.223  0.00  0.00    +0.000 A 
ATOM      8  C   UNL     1      26.897  23.111  24.022  0.00  0.00    +0.000 C 
ATOM      9  C   UNL     1      26.182  24.263  24.917  0.00  0.00    +0.000 A 
ATOM     10  C   UNL     1      25.592  23.804  26.069  0.00  0.00    +0.000 A 
ATOM     11  C   UNL     1      24.990  24.779  26.847  0.00  0.00    +0.000 A 
ATOM     12  C   UNL     1      24.983  26.109  26.492  0.00  0.00    +0.000 A 
ATOM     13  C   UNL     1      25.601  26.470  25.316  0.00  0.00    +0.000 A 
ATOM     14  C   UNL     1      26.188  25.518  24.558  0.00  0.00    +0.000 A 
ATOM     15  C   UNL     1      26.889  25.883  23.179  0.00  0.00    +0.000 C 
ENDROOT
BRANCH   8  16
ATOM     16  C   UNL     1      26.277  23.664  22.582  0.00  0.00    +0.000 C 
ATOM     17  O   UNL     1      25.287  22.704  22.362  0.00  0.00    +0.000 OA
ENDBRANCH   8  16
BRANCH  15  18
ATOM     18  C   UNL     1      27.271  27.439  23.580  0.00  0.00    +0.000 C 
ATOM     19  O   UNL     1      26.894  28.103  22.433  0.00  0.00    +0.000 OA
ENDBRANCH  15  18
TORSDOF 2
ENDMDL
MODEL 10
REMARK VINA RESULT:      -5.7     32.756     34.974
REMARK  Name = 
REMARK  2 active torsions:
REMARK  status: ('A' for Active; 'I' for Inactive)
REMARK    1  A    between atoms: C_8  and  C_9
REMARK    2  A    between atoms: C_17  and  C_18
REMARK                            x       y       z     vdW  Elec       q    Type
REMARK                         _______ _______ _______ _____ _____    ______ ____
ROOT
ATOM      1  C   UNL     1      18.940  -4.325  26.366  0.00  0.00    +0.000 C 
ATOM      2  C   UNL     1      18.772  -5.818  26.500  0.00  0.00    +0.000 A 
ATOM      3  C   UNL     1      17.793  -6.356  27.302  0.00  0.00    +0.000 A 
ATOM      4  C   UNL     1      17.656  -7.721  27.411  0.00  0.00    +0.000 A 
ATOM      5  C   UNL     1      18.488  -8.523  26.725  0.00  0.00    +0.000 A 
ATOM      6  C   UNL     1      19.433  -8.005  25.953  0.00  0.00    +0.000 A 
ATOM      7  C   UNL     1      19.616  -6.671  25.805  0.00  0.00    +0.000 A 
ATOM      8  C   UNL     1      20.443  -8.985  25.150  0.00  0.00    +0.000 C 
ATOM      9  C   UNL     1      20.796  -9.868  26.468  0.00  0.00    +0.000 A 
ATOM     10  C   UNL     1      22.139 -10.026  26.704  0.00  0.00    +0.000 A 
ATOM     11  C   UNL     1      22.452 -10.767  27.832  0.00  0.00    +0.000 A 
ATOM     12  C   UNL     1      21.488 -11.305  28.654  0.00  0.00    +0.000 A 
ATOM     13  C   UNL     1      20.167 -11.091  28.332  0.00  0.00    +0.000 A 
ATOM     14  C   UNL     1      19.862 -10.368  27.232  0.00  0.00    +0.000 A 
ATOM     15  C   UNL     1      18.353 -10.120  26.804  0.00  0.00    +0.000 C 
ENDROOT
BRANCH   8  16
ATOM     16  C   UNL     1      19.264 -10.025  24.609  0.00  0.00    +0.000 C 
ATOM     17  O   UNL     1      19.086  -9.533  23.315  0.00  0.00    +0.000 OA
ENDBRANCH   8  16
BRANCH  15  18
ATOM     18  C   UNL     1      17.717 -10.233  28.324  0.00  0.00    +0.000 C 
ATOM     19  O   UNL     1      16.597 -10.999  28.082  0.00  0.00    +0.000 OA
ENDBRANCH  15  18
TORSDOF 2
ENDMDL
