MODEL 1
REMARK VINA RESULT:      -6.0      0.000      0.000
REMARK  Name = 
REMARK  2 active torsions:
REMARK  status: ('A' for Active; 'I' for Inactive)
REMARK    1  A    between atoms: C_2  and  C_3
REMARK    2  A    between atoms: C_2  and  C_12
REMARK                            x       y       z     vdW  Elec       q    Type
REMARK                         _______ _______ _______ _____ _____    ______ ____
ROOT
ATOM      1  C   UNL     1      25.990  23.353  22.854  0.00  0.00    +0.000 C 
ATOM      2  C   UNL     1      26.836  24.582  23.756  0.00  0.00    +0.000 C 
ENDROOT
BRANCH   2   3
ATOM      3  C   UNL     1      27.918  24.676  22.594  0.00  0.00    +0.000 A 
ATOM      4  C   UNL     1      28.739  23.742  22.109  0.00  0.00    +0.000 A 
ATOM      5  N   UNL     1      29.520  24.332  21.191  0.00  0.00    +0.000 NA
ATOM      6  C   UNL     1      29.201  25.681  21.072  0.00  0.00    +0.000 A 
ATOM      7  C   UNL     1      29.650  26.678  20.222  0.00  0.00    +0.000 A 
ATOM      8  C   UNL     1      29.080  27.975  20.255  0.00  0.00    +0.000 A 
ATOM      9  C   UNL     1      28.056  28.205  21.167  0.00  0.00    +0.000 A 
ATOM     10  C   UNL     1      27.629  27.161  22.007  0.00  0.00    +0.000 A 
ATOM     11  C   UNL     1      28.170  25.883  21.987  0.00  0.00    +0.000 A 
ENDBRANCH   2   3
BRANCH   2  12
ATOM     12  C   UNL     1      27.584  23.339  24.566  0.00  0.00    +0.000 C 
ATOM     13  S   UNL     1      29.013  24.257  25.395  0.00  0.00    +0.000 S 
ATOM     14  C   UNL     1      28.846  23.265  26.915  0.00  0.00    +0.000 C 
ATOM     15  N   UNL     1      29.845  22.968  27.837  0.00  0.00    +0.000 N 
ATOM     16  C   UNL     1      30.980  22.099  27.551  0.00  0.00    +0.000 C 
ATOM     17  C   UNL     1      29.758  23.554  29.177  0.00  0.00    +0.000 C 
ATOM     18  N   UNL     1      27.635  22.892  26.949  0.00  0.00    +0.000 NA
ATOM     19  C   UNL     1      26.810  23.284  25.898  0.00  0.00    +0.000 C 
ATOM     20  O   UNL     1      25.638  23.553  25.958  0.00  0.00    +0.000 OA
ENDBRANCH   2  12
TORSDOF 2
ENDMDL
MODEL 2
REMARK VINA RESULT:      -5.6     33.590     35.501
REMARK  Name = 
REMARK  2 active torsions:
REMARK  status: ('A' for Active; 'I' for Inactive)
REMARK    1  A    between atoms: C_2  and  C_3
REMARK    2  A    between atoms: C_2  and  C_12
REMARK                            x       y       z     vdW  Elec       q    Type
REMARK                         _______ _______ _______ _____ _____    ______ ____
ROOT
ATOM      1  C   UNL     1      17.390  -9.553  28.549  0.00  0.00    +0.000 C 
ATOM      2  C   UNL     1      17.438  -9.661  26.810  0.00  0.00    +0.000 C 
ENDROOT
BRANCH   2   3
ATOM      3  C   UNL     1      17.776  -8.109  26.733  0.00  0.00    +0.000 A 
ATOM      4  C   UNL     1      17.035  -7.052  27.074  0.00  0.00    +0.000 A 
ATOM      5  N   UNL     1      17.730  -5.953  26.744  0.00  0.00    +0.000 NA
ATOM      6  C   UNL     1      18.952  -6.298  26.176  0.00  0.00    +0.000 A 
ATOM      7  C   UNL     1      20.036  -5.545  25.758  0.00  0.00    +0.000 A 
ATOM      8  C   UNL     1      21.219  -6.169  25.289  0.00  0.00    +0.000 A 
ATOM      9  C   UNL     1      21.249  -7.559  25.269  0.00  0.00    +0.000 A 
ATOM     10  C   UNL     1      20.126  -8.283  25.708  0.00  0.00    +0.000 A 
ATOM     11  C   UNL     1      18.961  -7.691  26.175  0.00  0.00    +0.000 A 
ENDBRANCH   2   3
BRANCH   2  12
ATOM     12  C   UNL     1      15.790  -9.461  26.846  0.00  0.00    +0.000 C 
ATOM     13  S   UNL     1      15.475  -8.750  25.124  0.00  0.00    +0.000 S 
ATOM     14  C   UNL     1      13.936  -9.709  24.943  0.00  0.00    +0.000 C 
ATOM     15  N   UNL     1      12.829  -9.381  24.167  0.00  0.00    +0.000 N 
ATOM     16  C   UNL     1      11.942  -8.260  24.451  0.00  0.00    +0.000 C 
ATOM     17  C   UNL     1      12.526 -10.207  22.996  0.00  0.00    +0.000 C 
ATOM     18  N   UNL     1      14.080 -10.728  25.684  0.00  0.00    +0.000 NA
ATOM     19  C   UNL     1      15.267 -10.841  26.401  0.00  0.00    +0.000 C 
ATOM     20  O   UNL     1      15.855 -11.856  26.674  0.00  0.00    +0.000 OA
ENDBRANCH   2  12
TORSDOF 2
ENDMDL
MODEL 3
REMARK VINA RESULT:      -5.6      1.682      6.416
REMARK  Name = 
REMARK  2 active torsions:
REMARK  status: ('A' for Active; 'I' for Inactive)
REMARK    1  A    between atoms: C_2  and  C_3
REMARK    2  A    between atoms: C_2  and  C_12
REMARK                            x       y       z     vdW  Elec       q    Type
REMARK                         _______ _______ _______ _____ _____    ______ ____
ROOT
ATOM      1  C   UNL     1      25.866  23.078  24.898  0.00  0.00    +0.000 C 
ATOM      2  C   UNL     1      27.539  23.188  24.422  0.00  0.00    +0.000 C 
ENDROOT
BRANCH   2   3
ATOM      3  C   UNL     1      27.895  23.792  25.850  0.00  0.00    +0.000 A 
ATOM      4  C   UNL     1      27.335  24.803  26.518  0.00  0.00    +0.000 A 
ATOM      5  N   UNL     1      28.044  24.982  27.643  0.00  0.00    +0.000 NA
ATOM      6  C   UNL     1      29.089  24.067  27.713  0.00  0.00    +0.000 A 
ATOM      7  C   UNL     1      30.029  23.794  28.692  0.00  0.00    +0.000 A 
ATOM      8  C   UNL     1      30.947  22.724  28.543  0.00  0.00    +0.000 A 
ATOM      9  C   UNL     1      30.864  21.961  27.383  0.00  0.00    +0.000 A 
ATOM     10  C   UNL     1      29.888  22.272  26.418  0.00  0.00    +0.000 A 
ATOM     11  C   UNL     1      28.978  23.312  26.548  0.00  0.00    +0.000 A 
ENDBRANCH   2   3
BRANCH   2  12
ATOM     12  C   UNL     1      27.149  24.646  23.729  0.00  0.00    +0.000 C 
ATOM     13  S   UNL     1      28.865  25.398  23.481  0.00  0.00    +0.000 S 
ATOM     14  C   UNL     1      28.387  26.109  21.872  0.00  0.00    +0.000 C 
ATOM     15  N   UNL     1      28.921  27.239  21.262  0.00  0.00    +0.000 N 
ATOM     16  C   UNL     1      28.742  28.595  21.766  0.00  0.00    +0.000 C 
ATOM     17  C   UNL     1      29.709  27.067  20.038  0.00  0.00    +0.000 C 
ATOM     18  N   UNL     1      27.457  25.367  21.434  0.00  0.00    +0.000 NA
ATOM     19  C   UNL     1      27.055  24.298  22.230  0.00  0.00    +0.000 C 
ATOM     20  O   UNL     1      26.672  23.220  21.856  0.00  0.00    +0.000 OA
ENDBRANCH   2  12
TORSDOF 2
ENDMDL
MODEL 4
REMARK VINA RESULT:      -5.6      3.036      3.798
REMARK  Name = 
REMARK  2 active torsions:
REMARK  status: ('A' for Active; 'I' for Inactive)
REMARK    1  A    between atoms: C_2  and  C_3
REMARK    2  A    between atoms: C_2  and  C_12
REMARK                            x       y       z     vdW  Elec       q    Type
REMARK                         _______ _______ _______ _____ _____    ______ ____
ROOT
ATOM      1  C   UNL     1      27.728  23.495  23.145  0.00  0.00    +0.000 C 
ATOM      2  C   UNL     1      28.146  24.564  24.457  0.00  0.00    +0.000 C 
ENDROOT
BRANCH   2   3
ATOM      3  C   UNL     1      29.601  23.923  24.502  0.00  0.00    +0.000 A 
ATOM      4  C   UNL     1      29.981  22.648  24.394  0.00  0.00    +0.000 A 
ATOM      5  N   UNL     1      31.309  22.608  24.580  0.00  0.00    +0.000 NA
ATOM      6  C   UNL     1      31.809  23.886  24.813  0.00  0.00    +0.000 A 
ATOM      7  C   UNL     1      33.095  24.372  24.973  0.00  0.00    +0.000 A 
ATOM      8  C   UNL     1      33.337  25.762  25.110  0.00  0.00    +0.000 A 
ATOM      9  C   UNL     1      32.237  26.613  25.074  0.00  0.00    +0.000 A 
ATOM     10  C   UNL     1      30.950  26.074  24.903  0.00  0.00    +0.000 A 
ATOM     11  C   UNL     1      30.693  24.717  24.762  0.00  0.00    +0.000 A 
ENDBRANCH   2   3
BRANCH   2  12
ATOM     12  C   UNL     1      27.450  23.443  25.466  0.00  0.00    +0.000 C 
ATOM     13  S   UNL     1      28.249  23.899  27.117  0.00  0.00    +0.000 S 
ATOM     14  C   UNL     1      26.697  23.590  28.022  0.00  0.00    +0.000 C 
ATOM     15  N   UNL     1      26.563  23.211  29.353  0.00  0.00    +0.000 N 
ATOM     16  C   UNL     1      26.971  21.911  29.871  0.00  0.00    +0.000 C 
ATOM     17  C   UNL     1      25.976  24.165  30.298  0.00  0.00    +0.000 C 
ATOM     18  N   UNL     1      25.768  23.779  27.180  0.00  0.00    +0.000 NA
ATOM     19  C   UNL     1      26.134  24.127  25.883  0.00  0.00    +0.000 C 
ATOM     20  O   UNL     1      25.539  24.859  25.135  0.00  0.00    +0.000 OA
ENDBRANCH   2  12
TORSDOF 2
ENDMDL
MODEL 5
REMARK VINA RESULT:      -5.6      3.816      5.554
REMARK  Name = 
REMARK  2 active torsions:
REMARK  status: ('A' for Active; 'I' for Inactive)
REMARK    1  A    between atoms: C_2  and  C_3
REMARK    2  A    between atoms: C_2  and  C_12
REMARK                            x       y       z     vdW  Elec       q    Type
REMARK                         _______ _______ _______ _____ _____    ______ ____
ROOT
ATOM      1  C   UNL     1      28.398  22.482  28.430  0.00  0.00    +0.000 C 
ATOM      2  C   UNL     1      26.791  23.058  28.073  0.00  0.00    +0.000 C 
ENDROOT
BRANCH   2   3
ATOM      3  C   UNL     1      27.384  23.956  26.902  0.00  0.00    +0.000 A 
ATOM      4  C   UNL     1      28.296  24.930  26.945  0.00  0.00    +0.000 A 
ATOM      5  N   UNL     1      28.397  25.439  25.708  0.00  0.00    +0.000 NA
ATOM      6  C   UNL     1      27.534  24.782  24.836  0.00  0.00    +0.000 A 
ATOM      7  C   UNL     1      27.332  24.878  23.470  0.00  0.00    +0.000 A 
ATOM      8  C   UNL     1      26.433  24.008  22.803  0.00  0.00    +0.000 A 
ATOM      9  C   UNL     1      25.768  23.058  23.571  0.00  0.00    +0.000 A 
ATOM     10  C   UNL     1      26.009  22.995  24.955  0.00  0.00    +0.000 A 
ATOM     11  C   UNL     1      26.888  23.834  25.626  0.00  0.00    +0.000 A 
ENDBRANCH   2   3
BRANCH   2  12
ATOM     12  C   UNL     1      27.032  24.184  29.271  0.00  0.00    +0.000 C 
ATOM     13  S   UNL     1      25.658  25.423  28.882  0.00  0.00    +0.000 S 
ATOM     14  C   UNL     1      25.317  25.691  30.652  0.00  0.00    +0.000 C 
ATOM     15  N   UNL     1      24.783  26.833  31.240  0.00  0.00    +0.000 N 
ATOM     16  C   UNL     1      25.484  28.109  31.317  0.00  0.00    +0.000 C 
ATOM     17  C   UNL     1      23.441  26.759  31.823  0.00  0.00    +0.000 C 
ATOM     18  N   UNL     1      25.680  24.626  31.235  0.00  0.00    +0.000 NA
ATOM     19  C   UNL     1      26.219  23.611  30.448  0.00  0.00    +0.000 C 
ATOM     20  O   UNL     1      26.104  22.425  30.617  0.00  0.00    +0.000 OA
ENDBRANCH   2  12
TORSDOF 2
ENDMDL
MODEL 6
REMARK VINA RESULT:      -5.5      4.622      6.366
REMARK  Name = 
REMARK  2 active torsions:
REMARK  status: ('A' for Active; 'I' for Inactive)
REMARK    1  A    between atoms: C_2  and  C_3
REMARK    2  A    between atoms: C_2  and  C_12
REMARK                            x       y       z     vdW  Elec       q    Type
REMARK                         _______ _______ _______ _____ _____    ______ ____
ROOT
ATOM      1  C   UNL     1      29.240  22.455  30.700  0.00  0.00    +0.000 C 
ATOM      2  C   UNL     1      28.367  22.714  29.214  0.00  0.00    +0.000 C 
ENDROOT
BRANCH   2   3
ATOM      3  C   UNL     1      29.648  23.427  28.597  0.00  0.00    +0.000 A 
ATOM      4  C   UNL     1      30.473  24.326  29.138  0.00  0.00    +0.000 A 
ATOM      5  N   UNL     1      31.352  24.684  28.190  0.00  0.00    +0.000 NA
ATOM      6  C   UNL     1      31.097  24.004  27.003  0.00  0.00    +0.000 A 
ATOM      7  C   UNL     1      31.758  23.962  25.788  0.00  0.00    +0.000 A 
ATOM      8  C   UNL     1      31.325  23.096  24.752  0.00  0.00    +0.000 A 
ATOM      9  C   UNL     1      30.218  22.293  25.005  0.00  0.00    +0.000 A 
ATOM     10  C   UNL     1      29.582  22.366  26.258  0.00  0.00    +0.000 A 
ATOM     11  C   UNL     1      29.993  23.203  27.286  0.00  0.00    +0.000 A 
ENDBRANCH   2   3
BRANCH   2  12
ATOM     12  C   UNL     1      27.752  24.084  29.924  0.00  0.00    +0.000 C 
ATOM     13  S   UNL     1      27.105  25.016  28.412  0.00  0.00    +0.000 S 
ATOM     14  C   UNL     1      25.635  25.592  29.322  0.00  0.00    +0.000 C 
ATOM     15  N   UNL     1      24.897  26.746  29.079  0.00  0.00    +0.000 N 
ATOM     16  C   UNL     1      25.402  28.094  29.305  0.00  0.00    +0.000 C 
ATOM     17  C   UNL     1      23.529  26.608  28.571  0.00  0.00    +0.000 C 
ATOM     18  N   UNL     1      25.434  24.729  30.229  0.00  0.00    +0.000 NA
ATOM     19  C   UNL     1      26.321  23.659  30.308  0.00  0.00    +0.000 C 
ATOM     20  O   UNL     1      26.065  22.528  30.632  0.00  0.00    +0.000 OA
ENDBRANCH   2  12
TORSDOF 2
ENDMDL
MODEL 7
REMARK VINA RESULT:      -5.5      2.822      3.503
REMARK  Name = 
REMARK  2 active torsions:
REMARK  status: ('A' for Active; 'I' for Inactive)
REMARK    1  A    between atoms: C_2  and  C_3
REMARK    2  A    between atoms: C_2  and  C_12
REMARK                            x       y       z     vdW  Elec       q    Type
REMARK                         _______ _______ _______ _____ _____    ______ ____
ROOT
ATOM      1  C   UNL     1      24.064  26.012  24.938  0.00  0.00    +0.000 C 
ATOM      2  C   UNL     1      25.703  26.025  25.531  0.00  0.00    +0.000 C 
ENDROOT
BRANCH   2   3
ATOM      3  C   UNL     1      26.085  24.903  24.470  0.00  0.00    +0.000 A 
ATOM      4  C   UNL     1      25.521  23.716  24.236  0.00  0.00    +0.000 A 
ATOM      5  N   UNL     1      26.257  23.101  23.298  0.00  0.00    +0.000 NA
ATOM      6  C   UNL     1      27.325  23.903  22.910  0.00  0.00    +0.000 A 
ATOM      7  C   UNL     1      28.299  23.758  21.937  0.00  0.00    +0.000 A 
ATOM      8  C   UNL     1      29.237  24.791  21.685  0.00  0.00    +0.000 A 
ATOM      9  C   UNL     1      29.138  25.950  22.447  0.00  0.00    +0.000 A 
ATOM     10  C   UNL     1      28.129  26.055  23.421  0.00  0.00    +0.000 A 
ATOM     11  C   UNL     1      27.199  25.057  23.679  0.00  0.00    +0.000 A 
ENDBRANCH   2   3
BRANCH   2  12
ATOM     12  C   UNL     1      25.188  24.965  26.701  0.00  0.00    +0.000 C 
ATOM     13  S   UNL     1      26.839  24.330  27.365  0.00  0.00    +0.000 S 
ATOM     14  C   UNL     1      26.215  24.318  29.077  0.00  0.00    +0.000 C 
ATOM     15  N   UNL     1      26.645  23.505  30.121  0.00  0.00    +0.000 N 
ATOM     16  C   UNL     1      26.427  22.065  30.171  0.00  0.00    +0.000 C 
ATOM     17  C   UNL     1      27.356  24.124  31.243  0.00  0.00    +0.000 C 
ATOM     18  N   UNL     1      25.299  25.193  29.113  0.00  0.00    +0.000 NA
ATOM     19  C   UNL     1      25.012  25.874  27.934  0.00  0.00    +0.000 C 
ATOM     20  O   UNL     1      24.662  27.021  27.826  0.00  0.00    +0.000 OA
ENDBRANCH   2  12
TORSDOF 2
ENDMDL
MODEL 8
REMARK VINA RESULT:      -5.2     33.169     35.127
REMARK  Name = 
REMARK  2 active torsions:
REMARK  status: ('A' for Active; 'I' for Inactive)
REMARK    1  A    between atoms: C_2  and  C_3
REMARK    2  A    between atoms: C_2  and  C_12
REMARK                            x       y       z     vdW  Elec       q    Type
REMARK                         _______ _______ _______ _____ _____    ______ ____
ROOT
ATOM      1  C   UNL     1      18.010  -6.393  27.389  0.00  0.00    +0.000 C 
ATOM      2  C   UNL     1      18.186  -7.353  25.944  0.00  0.00    +0.000 C 
ENDROOT
BRANCH   2   3
ATOM      3  C   UNL     1      17.455  -8.564  26.671  0.00  0.00    +0.000 A 
ATOM      4  C   UNL     1      17.896  -9.381  27.630  0.00  0.00    +0.000 A 
ATOM      5  N   UNL     1      16.937 -10.293  27.851  0.00  0.00    +0.000 NA
ATOM      6  C   UNL     1      15.845 -10.067  27.019  0.00  0.00    +0.000 A 
ATOM      7  C   UNL     1      14.600 -10.665  26.925  0.00  0.00    +0.000 A 
ATOM      8  C   UNL     1      13.619 -10.170  26.030  0.00  0.00    +0.000 A 
ATOM      9  C   UNL     1      13.953  -9.063  25.257  0.00  0.00    +0.000 A 
ATOM     10  C   UNL     1      15.228  -8.484  25.391  0.00  0.00    +0.000 A 
ATOM     11  C   UNL     1      16.200  -8.951  26.264  0.00  0.00    +0.000 A 
ENDBRANCH   2   3
BRANCH   2  12
ATOM     12  C   UNL     1      19.706  -7.734  26.496  0.00  0.00    +0.000 C 
ATOM     13  S   UNL     1      20.152  -9.177  25.360  0.00  0.00    +0.000 S 
ATOM     14  C   UNL     1      21.880  -8.616  25.226  0.00  0.00    +0.000 C 
ATOM     15  N   UNL     1      23.000  -9.401  24.974  0.00  0.00    +0.000 N 
ATOM     16  C   UNL     1      23.530 -10.383  25.912  0.00  0.00    +0.000 C 
ATOM     17  C   UNL     1      23.698  -9.237  23.696  0.00  0.00    +0.000 C 
ATOM     18  N   UNL     1      21.849  -7.364  25.424  0.00  0.00    +0.000 NA
ATOM     19  C   UNL     1      20.612  -6.783  25.689  0.00  0.00    +0.000 C 
ATOM     20  O   UNL     1      20.242  -5.686  25.361  0.00  0.00    +0.000 OA
ENDBRANCH   2  12
TORSDOF 2
ENDMDL
MODEL 9
REMARK VINA RESULT:      -5.2     28.739     31.928
REMARK  Name = 
REMARK  2 active torsions:
REMARK  status: ('A' for Active; 'I' for Inactive)
REMARK    1  A    between atoms: C_2  and  C_3
REMARK    2  A    between atoms: C_2  and  C_12
REMARK                            x       y       z     vdW  Elec       q    Type
REMARK                         _______ _______ _______ _____ _____    ______ ____
ROOT
ATOM      1  C   UNL     1      35.491  -5.468  34.197  0.00  0.00    +0.000 C 
ATOM      2  C   UNL     1      34.441  -5.007  32.883  0.00  0.00    +0.000 C 
ENDROOT
BRANCH   2   3
ATOM      3  C   UNL     1      33.426  -4.373  33.930  0.00  0.00    +0.000 A 
ATOM      4  C   UNL     1      32.597  -4.968  34.791  0.00  0.00    +0.000 A 
ATOM      5  N   UNL     1      31.888  -4.003  35.397  0.00  0.00    +0.000 NA
ATOM      6  C   UNL     1      32.262  -2.750  34.923  0.00  0.00    +0.000 A 
ATOM      7  C   UNL     1      31.896  -1.465  35.284  0.00  0.00    +0.000 A 
ATOM      8  C   UNL     1      32.510  -0.336  34.687  0.00  0.00    +0.000 A 
ATOM      9  C   UNL     1      33.493  -0.569  33.731  0.00  0.00    +0.000 A 
ATOM     10  C   UNL     1      33.838  -1.892  33.400  0.00  0.00    +0.000 A 
ATOM     11  C   UNL     1      33.251  -3.010  33.977  0.00  0.00    +0.000 A 
ENDBRANCH   2   3
BRANCH   2  12
ATOM     12  C   UNL     1      33.815  -6.544  32.970  0.00  0.00    +0.000 C 
ATOM     13  S   UNL     1      32.243  -6.351  31.939  0.00  0.00    +0.000 S 
ATOM     14  C   UNL     1      32.455  -8.002  31.197  0.00  0.00    +0.000 C 
ATOM     15  N   UNL     1      31.456  -8.835  30.704  0.00  0.00    +0.000 N 
ATOM     16  C   UNL     1      30.455  -9.485  31.541  0.00  0.00    +0.000 C 
ATOM     17  C   UNL     1      31.401  -9.084  29.261  0.00  0.00    +0.000 C 
ATOM     18  N   UNL     1      33.700  -8.237  31.238  0.00  0.00    +0.000 NA
ATOM     19  C   UNL     1      34.521  -7.268  31.807  0.00  0.00    +0.000 C 
ATOM     20  O   UNL     1      35.646  -6.988  31.480  0.00  0.00    +0.000 OA
ENDBRANCH   2  12
TORSDOF 2
ENDMDL
MODEL 10
REMARK VINA RESULT:      -5.1     15.482     17.797
REMARK  Name = 
REMARK  2 active torsions:
REMARK  status: ('A' for Active; 'I' for Inactive)
REMARK    1  A    between atoms: C_2  and  C_3
REMARK    2  A    between atoms: C_2  and  C_12
REMARK                            x       y       z     vdW  Elec       q    Type
REMARK                         _______ _______ _______ _____ _____    ______ ____
ROOT
ATOM      1  C   UNL     1      13.545  22.956  19.850  0.00  0.00    +0.000 C 
ATOM      2  C   UNL     1      12.716  22.788  21.374  0.00  0.00    +0.000 C 
ENDROOT
BRANCH   2   3
ATOM      3  C   UNL     1      11.342  22.602  20.595  0.00  0.00    +0.000 A 
ATOM      4  C   UNL     1      10.474  23.517  20.156  0.00  0.00    +0.000 A 
ATOM      5  N   UNL     1       9.428  22.858  19.633  0.00  0.00    +0.000 NA
ATOM      6  C   UNL     1       9.617  21.483  19.732  0.00  0.00    +0.000 A 
ATOM      7  C   UNL     1       8.883  20.402  19.273  0.00  0.00    +0.000 A 
ATOM      8  C   UNL     1       9.359  19.077  19.435  0.00  0.00    +0.000 A 
ATOM      9  C   UNL     1      10.587  18.906  20.066  0.00  0.00    +0.000 A 
ATOM     10  C   UNL     1      11.300  20.034  20.510  0.00  0.00    +0.000 A 
ATOM     11  C   UNL     1      10.853  21.340  20.357  0.00  0.00    +0.000 A 
ENDBRANCH   2   3
BRANCH   2  12
ATOM     12  C   UNL     1      12.650  24.448  21.413  0.00  0.00    +0.000 C 
ATOM     13  S   UNL     1      11.336  24.726  22.742  0.00  0.00    +0.000 S 
ATOM     14  C   UNL     1      12.239  26.155  23.422  0.00  0.00    +0.000 C 
ATOM     15  N   UNL     1      11.700  27.239  24.106  0.00  0.00    +0.000 N 
ATOM     16  C   UNL     1      10.841  28.243  23.490  0.00  0.00    +0.000 C 
ATOM     17  C   UNL     1      12.012  27.394  25.530  0.00  0.00    +0.000 C 
ATOM     18  N   UNL     1      13.456  25.960  23.128  0.00  0.00    +0.000 NA
ATOM     19  C   UNL     1      13.770  24.812  22.407  0.00  0.00    +0.000 C 
ATOM     20  O   UNL     1      14.771  24.149  22.499  0.00  0.00    +0.000 OA
ENDBRANCH   2  12
TORSDOF 2
ENDMDL
