MODEL 1
REMARK VINA RESULT:      -7.7      0.000      0.000
REMARK  Name = 
REMARK  6 active torsions:
REMARK  status: ('A' for Active; 'I' for Inactive)
REMARK    1  A    between atoms: C_8  and  C_9
REMARK    2  A    between atoms: C_15  and  C_16
REMARK    3  A    between atoms: N_22  and  C_23
REMARK    4  A    between atoms: C_23  and  C_24
REMARK    5  A    between atoms: C_24  and  C_26
REMARK    6  A    between atoms: C_26  and  N_27
REMARK                            x       y       z     vdW  Elec       q    Type
REMARK                         _______ _______ _______ _____ _____    ______ ____
ROOT
ATOM      1  C   UNL     1      38.899  -3.897  19.479  0.00  0.00    +0.000 C 
ATOM      2  C   UNL     1      38.324  -2.927  18.512  0.00  0.00    +0.000 A 
ATOM      3  C   UNL     1      37.105  -2.309  18.761  0.00  0.00    +0.000 A 
ATOM      4  C   UNL     1      36.563  -1.407  17.867  0.00  0.00    +0.000 A 
ATOM      5  C   UNL     1      37.202  -1.084  16.703  0.00  0.00    +0.000 A 
ATOM      6  C   UNL     1      38.429  -1.710  16.458  0.00  0.00    +0.000 A 
ATOM      7  C   UNL     1      38.973  -2.610  17.345  0.00  0.00    +0.000 A 
ATOM      8  C   UNL     1      38.875  -1.216  15.222  0.00  0.00    +0.000 A 
ATOM      9  C   UNL     1      37.933  -0.329  14.763  0.00  0.00    +0.000 A 
ATOM     10  N   UNL     1      36.931  -0.276  15.690  0.00  0.00    +0.000 N 
ENDROOT
BRANCH   8  11
ATOM     11  C   UNL     1      40.104  -1.586  14.578  0.00  0.00    +0.000 A 
ATOM     12  C   UNL     1      41.307  -0.943  14.669  0.00  0.00    +0.000 A 
ATOM     13  C   UNL     1      42.424  -1.387  14.005  0.00  0.00    +0.000 A 
ATOM     14  C   UNL     1      42.398  -2.511  13.208  0.00  0.00    +0.000 A 
ATOM     15  C   UNL     1      41.189  -3.191  13.095  0.00  0.00    +0.000 A 
ATOM     16  C   UNL     1      40.122  -2.702  13.774  0.00  0.00    +0.000 A 
ENDBRANCH   8  11
BRANCH   9  17
ATOM     17  C   UNL     1      37.946   0.427  13.542  0.00  0.00    +0.000 A 
ATOM     18  C   UNL     1      37.196   0.130  12.422  0.00  0.00    +0.000 A 
ATOM     19  C   UNL     1      37.218   0.862  11.257  0.00  0.00    +0.000 A 
ATOM     20  C   UNL     1      38.029   1.973  11.153  0.00  0.00    +0.000 A 
ATOM     21  C   UNL     1      38.798   2.313  12.243  0.00  0.00    +0.000 A 
ATOM     22  C   UNL     1      38.737   1.559  13.363  0.00  0.00    +0.000 A 
ENDBRANCH   9  17
BRANCH  10  23
ATOM     23  C   UNL     1      35.801   0.584  15.482  0.00  0.00    +0.000 C 
BRANCH  23  24
ATOM     24  C   UNL     1      35.900   1.813  16.535  0.00  0.00    +0.000 C 
ATOM     25  O   UNL     1      34.413   1.723  16.926  0.00  0.00    +0.000 OA
BRANCH  24  26
ATOM     26  C   UNL     1      35.548   3.012  15.476  0.00  0.00    +0.000 C 
BRANCH  26  27
ATOM     27  N   UNL     1      36.726   3.741  15.186  0.00  0.00    +0.000 NA
ATOM     28  C   UNL     1      36.522   4.953  14.437  0.00  0.00    +0.000 C 
ATOM     29  C   UNL     1      37.530   6.017  14.752  0.00  0.00    +0.000 C 
ATOM     30  C   UNL     1      38.926   5.398  14.798  0.00  0.00    +0.000 C 
ATOM     31  C   UNL     1      38.963   4.257  15.803  0.00  0.00    +0.000 C 
ATOM     32  C   UNL     1      37.575   3.958  16.336  0.00  0.00    +0.000 C 
ENDBRANCH  26  27
ENDBRANCH  24  26
ENDBRANCH  23  24
ENDBRANCH  10  23
TORSDOF 6
ENDMDL
MODEL 2
REMARK VINA RESULT:      -6.9      2.125      3.279
REMARK  Name = 
REMARK  6 active torsions:
REMARK  status: ('A' for Active; 'I' for Inactive)
REMARK    1  A    between atoms: C_8  and  C_9
REMARK    2  A    between atoms: C_15  and  C_16
REMARK    3  A    between atoms: N_22  and  C_23
REMARK    4  A    between atoms: C_23  and  C_24
REMARK    5  A    between atoms: C_24  and  C_26
REMARK    6  A    between atoms: C_26  and  N_27
REMARK                            x       y       z     vdW  Elec       q    Type
REMARK                         _______ _______ _______ _____ _____    ______ ____
ROOT
ATOM      1  C   UNL     1      34.906  -0.985  18.011  0.00  0.00    +0.000 C 
ATOM      2  C   UNL     1      35.391  -0.013  16.996  0.00  0.00    +0.000 A 
ATOM      3  C   UNL     1      34.800   1.237  16.865  0.00  0.00    +0.000 A 
ATOM      4  C   UNL     1      35.243   2.146  15.925  0.00  0.00    +0.000 A 
ATOM      5  C   UNL     1      36.283   1.854  15.086  0.00  0.00    +0.000 A 
ATOM      6  C   UNL     1      36.874   0.594  15.223  0.00  0.00    +0.000 A 
ATOM      7  C   UNL     1      36.435  -0.315  16.158  0.00  0.00    +0.000 A 
ATOM      8  C   UNL     1      37.900   0.542  14.266  0.00  0.00    +0.000 A 
ATOM      9  C   UNL     1      37.903   1.739  13.593  0.00  0.00    +0.000 A 
ATOM     10  N   UNL     1      36.906   2.510  14.120  0.00  0.00    +0.000 N 
ENDROOT
BRANCH   8  11
ATOM     11  C   UNL     1      38.779  -0.574  14.055  0.00  0.00    +0.000 A 
ATOM     12  C   UNL     1      38.600  -1.609  13.181  0.00  0.00    +0.000 A 
ATOM     13  C   UNL     1      39.510  -2.631  13.062  0.00  0.00    +0.000 A 
ATOM     14  C   UNL     1      40.661  -2.671  13.818  0.00  0.00    +0.000 A 
ATOM     15  C   UNL     1      40.876  -1.631  14.719  0.00  0.00    +0.000 A 
ATOM     16  C   UNL     1      39.939  -0.653  14.790  0.00  0.00    +0.000 A 
ENDBRANCH   8  11
BRANCH   9  17
ATOM     17  C   UNL     1      38.768   2.155  12.525  0.00  0.00    +0.000 A 
ATOM     18  C   UNL     1      38.499   1.991  11.181  0.00  0.00    +0.000 A 
ATOM     19  C   UNL     1      39.337   2.393  10.167  0.00  0.00    +0.000 A 
ATOM     20  C   UNL     1      40.538   3.003  10.463  0.00  0.00    +0.000 A 
ATOM     21  C   UNL     1      40.856   3.190  11.790  0.00  0.00    +0.000 A 
ATOM     22  C   UNL     1      39.995   2.776  12.746  0.00  0.00    +0.000 A 
ENDBRANCH   9  17
BRANCH  10  23
ATOM     23  C   UNL     1      36.674   3.833  13.614  0.00  0.00    +0.000 C 
BRANCH  23  24
ATOM     24  C   UNL     1      36.622   4.854  14.872  0.00  0.00    +0.000 C 
ATOM     25  O   UNL     1      36.325   6.079  13.989  0.00  0.00    +0.000 OA
BRANCH  24  26
ATOM     26  C   UNL     1      38.213   5.244  14.878  0.00  0.00    +0.000 C 
BRANCH  26  27
ATOM     27  N   UNL     1      38.617   5.541  16.202  0.00  0.00    +0.000 NA
ATOM     28  C   UNL     1      38.493   6.925  16.579  0.00  0.00    +0.000 C 
ATOM     29  C   UNL     1      38.206   7.114  18.038  0.00  0.00    +0.000 C 
ATOM     30  C   UNL     1      39.115   6.199  18.858  0.00  0.00    +0.000 C 
ATOM     31  C   UNL     1      38.938   4.753  18.421  0.00  0.00    +0.000 C 
ATOM     32  C   UNL     1      38.048   4.661  17.197  0.00  0.00    +0.000 C 
ENDBRANCH  26  27
ENDBRANCH  24  26
ENDBRANCH  23  24
ENDBRANCH  10  23
TORSDOF 6
ENDMDL
MODEL 3
REMARK VINA RESULT:      -6.9      1.442      4.695
REMARK  Name = 
REMARK  6 active torsions:
REMARK  status: ('A' for Active; 'I' for Inactive)
REMARK    1  A    between atoms: C_8  and  C_9
REMARK    2  A    between atoms: C_15  and  C_16
REMARK    3  A    between atoms: N_22  and  C_23
REMARK    4  A    between atoms: C_23  and  C_24
REMARK    5  A    between atoms: C_24  and  C_26
REMARK    6  A    between atoms: C_26  and  N_27
REMARK                            x       y       z     vdW  Elec       q    Type
REMARK                         _______ _______ _______ _____ _____    ______ ____
ROOT
ATOM      1  C   UNL     1      38.682   2.163  10.195  0.00  0.00    +0.000 C 
ATOM      2  C   UNL     1      38.181   1.421  11.380  0.00  0.00    +0.000 A 
ATOM      3  C   UNL     1      36.939   1.711  11.932  0.00  0.00    +0.000 A 
ATOM      4  C   UNL     1      36.466   1.026  13.033  0.00  0.00    +0.000 A 
ATOM      5  C   UNL     1      37.198   0.035  13.625  0.00  0.00    +0.000 A 
ATOM      6  C   UNL     1      38.447  -0.253  13.065  0.00  0.00    +0.000 A 
ATOM      7  C   UNL     1      38.923   0.427  11.968  0.00  0.00    +0.000 A 
ATOM      8  C   UNL     1      38.988  -1.291  13.840  0.00  0.00    +0.000 A 
ATOM      9  C   UNL     1      38.078  -1.597  14.822  0.00  0.00    +0.000 A 
ATOM     10  N   UNL     1      37.003  -0.769  14.659  0.00  0.00    +0.000 N 
ENDROOT
BRANCH   8  11
ATOM     11  C   UNL     1      40.265  -1.909  13.619  0.00  0.00    +0.000 A 
ATOM     12  C   UNL     1      41.435  -1.641  14.273  0.00  0.00    +0.000 A 
ATOM     13  C   UNL     1      42.605  -2.296  13.977  0.00  0.00    +0.000 A 
ATOM     14  C   UNL     1      42.668  -3.265  13.000  0.00  0.00    +0.000 A 
ATOM     15  C   UNL     1      41.495  -3.564  12.313  0.00  0.00    +0.000 A 
ATOM     16  C   UNL     1      40.373  -2.882  12.652  0.00  0.00    +0.000 A 
ENDBRANCH   8  11
BRANCH   9  17
ATOM     17  C   UNL     1      38.186  -2.588  15.854  0.00  0.00    +0.000 A 
ATOM     18  C   UNL     1      37.717  -3.883  15.758  0.00  0.00    +0.000 A 
ATOM     19  C   UNL     1      37.824  -4.824  16.756  0.00  0.00    +0.000 A 
ATOM     20  C   UNL     1      38.432  -4.498  17.951  0.00  0.00    +0.000 A 
ATOM     21  C   UNL     1      38.918  -3.219  18.100  0.00  0.00    +0.000 A 
ATOM     22  C   UNL     1      38.786  -2.334  17.085  0.00  0.00    +0.000 A 
ENDBRANCH   9  17
BRANCH  10  23
ATOM     23  C   UNL     1      35.878  -0.866  15.545  0.00  0.00    +0.000 C 
BRANCH  23  24
ATOM     24  C   UNL     1      36.195   0.023  16.863  0.00  0.00    +0.000 C 
ATOM     25  O   UNL     1      35.315  -0.848  17.779  0.00  0.00    +0.000 OA
BRANCH  24  26
ATOM     26  C   UNL     1      34.962   1.086  16.689  0.00  0.00    +0.000 C 
BRANCH  26  27
ATOM     27  N   UNL     1      35.382   2.161  15.869  0.00  0.00    +0.000 NA
ATOM     28  C   UNL     1      34.318   2.897  15.239  0.00  0.00    +0.000 C 
ATOM     29  C   UNL     1      34.651   4.342  15.021  0.00  0.00    +0.000 C 
ATOM     30  C   UNL     1      36.068   4.459  14.462  0.00  0.00    +0.000 C 
ATOM     31  C   UNL     1      37.059   3.776  15.392  0.00  0.00    +0.000 C 
ATOM     32  C   UNL     1      36.339   3.038  16.504  0.00  0.00    +0.000 C 
ENDBRANCH  26  27
ENDBRANCH  24  26
ENDBRANCH  23  24
ENDBRANCH  10  23
TORSDOF 6
ENDMDL
MODEL 4
REMARK VINA RESULT:      -6.9      1.899      6.478
REMARK  Name = 
REMARK  6 active torsions:
REMARK  status: ('A' for Active; 'I' for Inactive)
REMARK    1  A    between atoms: C_8  and  C_9
REMARK    2  A    between atoms: C_15  and  C_16
REMARK    3  A    between atoms: N_22  and  C_23
REMARK    4  A    between atoms: C_23  and  C_24
REMARK    5  A    between atoms: C_24  and  C_26
REMARK    6  A    between atoms: C_26  and  N_27
REMARK                            x       y       z     vdW  Elec       q    Type
REMARK                         _______ _______ _______ _____ _____    ______ ____
ROOT
ATOM      1  C   UNL     1      35.534   6.655  11.909  0.00  0.00    +0.000 C 
ATOM      2  C   UNL     1      35.874   5.439  12.692  0.00  0.00    +0.000 A 
ATOM      3  C   UNL     1      35.377   5.254  13.975  0.00  0.00    +0.000 A 
ATOM      4  C   UNL     1      35.688   4.127  14.710  0.00  0.00    +0.000 A 
ATOM      5  C   UNL     1      36.496   3.147  14.205  0.00  0.00    +0.000 A 
ATOM      6  C   UNL     1      36.994   3.339  12.912  0.00  0.00    +0.000 A 
ATOM      7  C   UNL     1      36.687   4.460  12.176  0.00  0.00    +0.000 A 
ATOM      8  C   UNL     1      37.780   2.210  12.629  0.00  0.00    +0.000 A 
ATOM      9  C   UNL     1      37.740   1.388  13.728  0.00  0.00    +0.000 A 
ATOM     10  N   UNL     1      36.949   1.992  14.665  0.00  0.00    +0.000 N 
ENDROOT
BRANCH   8  11
ATOM     11  C   UNL     1      38.485   1.981  11.399  0.00  0.00    +0.000 A 
ATOM     12  C   UNL     1      39.822   2.151  11.172  0.00  0.00    +0.000 A 
ATOM     13  C   UNL     1      40.393   1.901   9.948  0.00  0.00    +0.000 A 
ATOM     14  C   UNL     1      39.649   1.462   8.875  0.00  0.00    +0.000 A 
ATOM     15  C   UNL     1      38.283   1.277   9.071  0.00  0.00    +0.000 A 
ATOM     16  C   UNL     1      37.780   1.542  10.303  0.00  0.00    +0.000 A 
ENDBRANCH   8  11
BRANCH   9  17
ATOM     17  C   UNL     1      38.390   0.122  13.913  0.00  0.00    +0.000 A 
ATOM     18  C   UNL     1      39.513  -0.084  14.688  0.00  0.00    +0.000 A 
ATOM     19  C   UNL     1      40.128  -1.303  14.856  0.00  0.00    +0.000 A 
ATOM     20  C   UNL     1      39.626  -2.424  14.227  0.00  0.00    +0.000 A 
ATOM     21  C   UNL     1      38.506  -2.274  13.441  0.00  0.00    +0.000 A 
ATOM     22  C   UNL     1      37.941  -1.052  13.312  0.00  0.00    +0.000 A 
ENDBRANCH   9  17
BRANCH  10  23
ATOM     23  C   UNL     1      36.714   1.353  15.929  0.00  0.00    +0.000 C 
BRANCH  23  24
ATOM     24  C   UNL     1      35.331   0.515  15.822  0.00  0.00    +0.000 C 
ATOM     25  O   UNL     1      34.619   1.370  16.887  0.00  0.00    +0.000 OA
BRANCH  24  26
ATOM     26  C   UNL     1      35.688  -0.605  16.962  0.00  0.00    +0.000 C 
BRANCH  26  27
ATOM     27  N   UNL     1      36.009  -1.831  16.330  0.00  0.00    +0.000 NA
ATOM     28  C   UNL     1      37.125  -2.536  16.902  0.00  0.00    +0.000 C 
ATOM     29  C   UNL     1      37.011  -4.025  16.769  0.00  0.00    +0.000 C 
ATOM     30  C   UNL     1      36.558  -4.376  15.353  0.00  0.00    +0.000 C 
ATOM     31  C   UNL     1      35.251  -3.669  15.028  0.00  0.00    +0.000 C 
ATOM     32  C   UNL     1      34.871  -2.699  16.130  0.00  0.00    +0.000 C 
ENDBRANCH  26  27
ENDBRANCH  24  26
ENDBRANCH  23  24
ENDBRANCH  10  23
TORSDOF 6
ENDMDL
MODEL 5
REMARK VINA RESULT:      -6.8      2.187      4.659
REMARK  Name = 
REMARK  6 active torsions:
REMARK  status: ('A' for Active; 'I' for Inactive)
REMARK    1  A    between atoms: C_8  and  C_9
REMARK    2  A    between atoms: C_15  and  C_16
REMARK    3  A    between atoms: N_22  and  C_23
REMARK    4  A    between atoms: C_23  and  C_24
REMARK    5  A    between atoms: C_24  and  C_26
REMARK    6  A    between atoms: C_26  and  N_27
REMARK                            x       y       z     vdW  Elec       q    Type
REMARK                         _______ _______ _______ _____ _____    ______ ____
ROOT
ATOM      1  C   UNL     1      42.914  -3.293  12.873  0.00  0.00    +0.000 C 
ATOM      2  C   UNL     1      42.036  -2.177  13.309  0.00  0.00    +0.000 A 
ATOM      3  C   UNL     1      42.447  -0.856  13.186  0.00  0.00    +0.000 A 
ATOM      4  C   UNL     1      41.637   0.188  13.589  0.00  0.00    +0.000 A 
ATOM      5  C   UNL     1      40.398  -0.035  14.123  0.00  0.00    +0.000 A 
ATOM      6  C   UNL     1      39.990  -1.368  14.243  0.00  0.00    +0.000 A 
ATOM      7  C   UNL     1      40.794  -2.411  13.844  0.00  0.00    +0.000 A 
ATOM      8  C   UNL     1      38.705  -1.329  14.806  0.00  0.00    +0.000 A 
ATOM      9  C   UNL     1      38.377  -0.011  15.007  0.00  0.00    +0.000 A 
ATOM     10  N   UNL     1      39.432   0.746  14.580  0.00  0.00    +0.000 N 
ENDROOT
BRANCH   8  11
ATOM     11  C   UNL     1      37.896  -2.478  15.103  0.00  0.00    +0.000 A 
ATOM     12  C   UNL     1      37.950  -3.255  16.226  0.00  0.00    +0.000 A 
ATOM     13  C   UNL     1      37.126  -4.339  16.405  0.00  0.00    +0.000 A 
ATOM     14  C   UNL     1      36.192  -4.706  15.461  0.00  0.00    +0.000 A 
ATOM     15  C   UNL     1      36.109  -3.935  14.305  0.00  0.00    +0.000 A 
ATOM     16  C   UNL     1      36.952  -2.879  14.188  0.00  0.00    +0.000 A 
ENDBRANCH   8  11
BRANCH   9  17
ATOM     17  C   UNL     1      37.168   0.529  15.562  0.00  0.00    +0.000 A 
ATOM     18  C   UNL     1      36.793   0.430  16.887  0.00  0.00    +0.000 A 
ATOM     19  C   UNL     1      35.631   0.950  17.405  0.00  0.00    +0.000 A 
ATOM     20  C   UNL     1      34.748   1.623  16.586  0.00  0.00    +0.000 A 
ATOM     21  C   UNL     1      35.073   1.750  15.255  0.00  0.00    +0.000 A 
ATOM     22  C   UNL     1      36.230   1.220  14.798  0.00  0.00    +0.000 A 
ENDBRANCH   9  17
BRANCH  10  23
ATOM     23  C   UNL     1      39.372   2.177  14.659  0.00  0.00    +0.000 C 
BRANCH  23  24
ATOM     24  C   UNL     1      38.922   2.746  13.210  0.00  0.00    +0.000 C 
ATOM     25  O   UNL     1      40.352   3.171  12.827  0.00  0.00    +0.000 OA
BRANCH  24  26
ATOM     26  C   UNL     1      38.595   4.278  13.689  0.00  0.00    +0.000 C 
BRANCH  26  27
ATOM     27  N   UNL     1      38.709   4.362  15.097  0.00  0.00    +0.000 NA
ATOM     28  C   UNL     1      39.722   5.268  15.573  0.00  0.00    +0.000 C 
ATOM     29  C   UNL     1      39.380   5.892  16.892  0.00  0.00    +0.000 C 
ATOM     30  C   UNL     1      38.838   4.821  17.837  0.00  0.00    +0.000 C 
ATOM     31  C   UNL     1      37.645   4.119  17.209  0.00  0.00    +0.000 C 
ATOM     32  C   UNL     1      37.447   4.565  15.773  0.00  0.00    +0.000 C 
ENDBRANCH  26  27
ENDBRANCH  24  26
ENDBRANCH  23  24
ENDBRANCH  10  23
TORSDOF 6
ENDMDL
MODEL 6
REMARK VINA RESULT:      -6.8     25.791     28.738
REMARK  Name = 
REMARK  6 active torsions:
REMARK  status: ('A' for Active; 'I' for Inactive)
REMARK    1  A    between atoms: C_8  and  C_9
REMARK    2  A    between atoms: C_15  and  C_16
REMARK    3  A    between atoms: N_22  and  C_23
REMARK    4  A    between atoms: C_23  and  C_24
REMARK    5  A    between atoms: C_24  and  C_26
REMARK    6  A    between atoms: C_26  and  N_27
REMARK                            x       y       z     vdW  Elec       q    Type
REMARK                         _______ _______ _______ _____ _____    ______ ____
ROOT
ATOM      1  C   UNL     1      22.841  15.092  39.651  0.00  0.00    +0.000 C 
ATOM      2  C   UNL     1      24.277  15.298  39.332  0.00  0.00    +0.000 A 
ATOM      3  C   UNL     1      25.223  15.425  40.342  0.00  0.00    +0.000 A 
ATOM      4  C   UNL     1      26.559  15.618  40.053  0.00  0.00    +0.000 A 
ATOM      5  C   UNL     1      27.008  15.690  38.763  0.00  0.00    +0.000 A 
ATOM      6  C   UNL     1      26.051  15.561  37.751  0.00  0.00    +0.000 A 
ATOM      7  C   UNL     1      24.718  15.369  38.034  0.00  0.00    +0.000 A 
ATOM      8  C   UNL     1      26.754  15.665  36.540  0.00  0.00    +0.000 A 
ATOM      9  C   UNL     1      28.080  15.850  36.842  0.00  0.00    +0.000 A 
ATOM     10  N   UNL     1      28.195  15.860  38.204  0.00  0.00    +0.000 N 
ENDROOT
BRANCH   8  11
ATOM     11  C   UNL     1      26.165  15.584  35.233  0.00  0.00    +0.000 A 
ATOM     12  C   UNL     1      26.140  14.495  34.407  0.00  0.00    +0.000 A 
ATOM     13  C   UNL     1      25.546  14.531  33.169  0.00  0.00    +0.000 A 
ATOM     14  C   UNL     1      24.938  15.669  32.687  0.00  0.00    +0.000 A 
ATOM     15  C   UNL     1      24.944  16.797  33.503  0.00  0.00    +0.000 A 
ATOM     16  C   UNL     1      25.547  16.697  34.713  0.00  0.00    +0.000 A 
ENDBRANCH   8  11
BRANCH   9  17
ATOM     17  C   UNL     1      29.182  16.012  35.937  0.00  0.00    +0.000 A 
ATOM     18  C   UNL     1      30.084  15.021  35.604  0.00  0.00    +0.000 A 
ATOM     19  C   UNL     1      31.137  15.189  34.737  0.00  0.00    +0.000 A 
ATOM     20  C   UNL     1      31.349  16.412  34.134  0.00  0.00    +0.000 A 
ATOM     21  C   UNL     1      30.479  17.436  34.432  0.00  0.00    +0.000 A 
ATOM     22  C   UNL     1      29.459  17.215  35.292  0.00  0.00    +0.000 A 
ENDBRANCH   9  17
BRANCH  10  23
ATOM     23  C   UNL     1      29.481  16.029  38.818  0.00  0.00    +0.000 C 
BRANCH  23  24
ATOM     24  C   UNL     1      30.001  14.575  39.312  0.00  0.00    +0.000 C 
ATOM     25  O   UNL     1      29.922  14.948  40.804  0.00  0.00    +0.000 OA
BRANCH  24  26
ATOM     26  C   UNL     1      31.601  14.924  39.310  0.00  0.00    +0.000 C 
BRANCH  26  27
ATOM     27  N   UNL     1      32.282  13.993  38.489  0.00  0.00    +0.000 NA
ATOM     28  C   UNL     1      33.637  13.710  38.885  0.00  0.00    +0.000 C 
ATOM     29  C   UNL     1      34.070  12.316  38.545  0.00  0.00    +0.000 C 
ATOM     30  C   UNL     1      33.626  11.978  37.122  0.00  0.00    +0.000 C 
ATOM     31  C   UNL     1      32.123  12.162  36.982  0.00  0.00    +0.000 C 
ATOM     32  C   UNL     1      31.533  12.783  38.234  0.00  0.00    +0.000 C 
ENDBRANCH  26  27
ENDBRANCH  24  26
ENDBRANCH  23  24
ENDBRANCH  10  23
TORSDOF 6
ENDMDL
MODEL 7
REMARK VINA RESULT:      -6.8      2.918      6.880
REMARK  Name = 
REMARK  6 active torsions:
REMARK  status: ('A' for Active; 'I' for Inactive)
REMARK    1  A    between atoms: C_8  and  C_9
REMARK    2  A    between atoms: C_15  and  C_16
REMARK    3  A    between atoms: N_22  and  C_23
REMARK    4  A    between atoms: C_23  and  C_24
REMARK    5  A    between atoms: C_24  and  C_26
REMARK    6  A    between atoms: C_26  and  N_27
REMARK                            x       y       z     vdW  Elec       q    Type
REMARK                         _______ _______ _______ _____ _____    ______ ____
ROOT
ATOM      1  C   UNL     1      34.353   5.836  14.276  0.00  0.00    +0.000 C 
ATOM      2  C   UNL     1      35.360   4.834  13.841  0.00  0.00    +0.000 A 
ATOM      3  C   UNL     1      36.151   5.058  12.721  0.00  0.00    +0.000 A 
ATOM      4  C   UNL     1      37.089   4.132  12.309  0.00  0.00    +0.000 A 
ATOM      5  C   UNL     1      37.280   2.960  12.986  0.00  0.00    +0.000 A 
ATOM      6  C   UNL     1      36.481   2.741  14.113  0.00  0.00    +0.000 A 
ATOM      7  C   UNL     1      35.544   3.660  14.527  0.00  0.00    +0.000 A 
ATOM      8  C   UNL     1      36.865   1.491  14.623  0.00  0.00    +0.000 A 
ATOM      9  C   UNL     1      37.858   0.998  13.814  0.00  0.00    +0.000 A 
ATOM     10  N   UNL     1      38.083   1.919  12.830  0.00  0.00    +0.000 N 
ENDROOT
BRANCH   8  11
ATOM     11  C   UNL     1      36.305   0.865  15.788  0.00  0.00    +0.000 A 
ATOM     12  C   UNL     1      36.334   1.337  17.071  0.00  0.00    +0.000 A 
ATOM     13  C   UNL     1      35.764   0.650  18.115  0.00  0.00    +0.000 A 
ATOM     14  C   UNL     1      35.127  -0.557  17.929  0.00  0.00    +0.000 A 
ATOM     15  C   UNL     1      35.078  -1.067  16.635  0.00  0.00    +0.000 A 
ATOM     16  C   UNL     1      35.660  -0.342  15.648  0.00  0.00    +0.000 A 
ENDBRANCH   8  11
BRANCH   9  17
ATOM     17  C   UNL     1      38.563  -0.247  13.931  0.00  0.00    +0.000 A 
ATOM     18  C   UNL     1      38.226  -1.411  13.270  0.00  0.00    +0.000 A 
ATOM     19  C   UNL     1      38.909  -2.599  13.392  0.00  0.00    +0.000 A 
ATOM     20  C   UNL     1      40.009  -2.682  14.220  0.00  0.00    +0.000 A 
ATOM     21  C   UNL     1      40.389  -1.550  14.903  0.00  0.00    +0.000 A 
ATOM     22  C   UNL     1      39.682  -0.408  14.745  0.00  0.00    +0.000 A 
ENDBRANCH   9  17
BRANCH  10  23
ATOM     23  C   UNL     1      39.085   1.678  11.831  0.00  0.00    +0.000 C 
BRANCH  23  24
ATOM     24  C   UNL     1      38.352   1.090  10.511  0.00  0.00    +0.000 C 
ATOM     25  O   UNL     1      39.498   0.112  10.193  0.00  0.00    +0.000 OA
BRANCH  24  26
ATOM     26  C   UNL     1      38.974   2.165   9.442  0.00  0.00    +0.000 C 
BRANCH  26  27
ATOM     27  N   UNL     1      38.007   2.451   8.449  0.00  0.00    +0.000 NA
ATOM     28  C   UNL     1      38.057   1.599   7.289  0.00  0.00    +0.000 C 
ATOM     29  C   UNL     1      36.715   1.393   6.652  0.00  0.00    +0.000 C 
ATOM     30  C   UNL     1      35.986   2.733   6.559  0.00  0.00    +0.000 C 
ATOM     31  C   UNL     1      35.876   3.369   7.936  0.00  0.00    +0.000 C 
ATOM     32  C   UNL     1      36.662   2.579   8.964  0.00  0.00    +0.000 C 
ENDBRANCH  26  27
ENDBRANCH  24  26
ENDBRANCH  23  24
ENDBRANCH  10  23
TORSDOF 6
ENDMDL
MODEL 8
REMARK VINA RESULT:      -6.7      2.636      6.833
REMARK  Name = 
REMARK  6 active torsions:
REMARK  status: ('A' for Active; 'I' for Inactive)
REMARK    1  A    between atoms: C_8  and  C_9
REMARK    2  A    between atoms: C_15  and  C_16
REMARK    3  A    between atoms: N_22  and  C_23
REMARK    4  A    between atoms: C_23  and  C_24
REMARK    5  A    between atoms: C_24  and  C_26
REMARK    6  A    between atoms: C_26  and  N_27
REMARK                            x       y       z     vdW  Elec       q    Type
REMARK                         _______ _______ _______ _____ _____    ______ ____
ROOT
ATOM      1  C   UNL     1      34.533   5.829  14.300  0.00  0.00    +0.000 C 
ATOM      2  C   UNL     1      35.501   4.778  13.891  0.00  0.00    +0.000 A 
ATOM      3  C   UNL     1      36.315   4.950  12.779  0.00  0.00    +0.000 A 
ATOM      4  C   UNL     1      37.216   3.979  12.392  0.00  0.00    +0.000 A 
ATOM      5  C   UNL     1      37.347   2.809  13.088  0.00  0.00    +0.000 A 
ATOM      6  C   UNL     1      36.525   2.642  14.207  0.00  0.00    +0.000 A 
ATOM      7  C   UNL     1      35.625   3.607  14.596  0.00  0.00    +0.000 A 
ATOM      8  C   UNL     1      36.849   1.383  14.739  0.00  0.00    +0.000 A 
ATOM      9  C   UNL     1      37.829   0.836  13.950  0.00  0.00    +0.000 A 
ATOM     10  N   UNL     1      38.106   1.733  12.956  0.00  0.00    +0.000 N 
ENDROOT
BRANCH   8  11
ATOM     11  C   UNL     1      36.248   0.799  15.906  0.00  0.00    +0.000 A 
ATOM     12  C   UNL     1      36.249   1.307  17.175  0.00  0.00    +0.000 A 
ATOM     13  C   UNL     1      35.641   0.659  18.222  0.00  0.00    +0.000 A 
ATOM     14  C   UNL     1      34.990  -0.543  18.053  0.00  0.00    +0.000 A 
ATOM     15  C   UNL     1      34.968  -1.089  16.772  0.00  0.00    +0.000 A 
ATOM     16  C   UNL     1      35.588  -0.401  15.781  0.00  0.00    +0.000 A 
ENDBRANCH   8  11
BRANCH   9  17
ATOM     17  C   UNL     1      38.477  -0.437  14.093  0.00  0.00    +0.000 A 
ATOM     18  C   UNL     1      38.212  -1.550  13.321  0.00  0.00    +0.000 A 
ATOM     19  C   UNL     1      38.839  -2.765  13.470  0.00  0.00    +0.000 A 
ATOM     20  C   UNL     1      39.803  -2.932  14.442  0.00  0.00    +0.000 A 
ATOM     21  C   UNL     1      40.106  -1.852  15.241  0.00  0.00    +0.000 A 
ATOM     22  C   UNL     1      39.459  -0.680  15.051  0.00  0.00    +0.000 A 
ENDBRANCH   9  17
BRANCH  10  23
ATOM     23  C   UNL     1      39.109   1.433  11.974  0.00  0.00    +0.000 C 
BRANCH  23  24
ATOM     24  C   UNL     1      40.501   2.114  12.448  0.00  0.00    +0.000 C 
ATOM     25  O   UNL     1      40.536   3.095  11.262  0.00  0.00    +0.000 OA
BRANCH  24  26
ATOM     26  C   UNL     1      41.503   1.102  11.640  0.00  0.00    +0.000 C 
BRANCH  26  27
ATOM     27  N   UNL     1      42.049   0.161  12.546  0.00  0.00    +0.000 NA
ATOM     28  C   UNL     1      42.045  -1.202  12.083  0.00  0.00    +0.000 C 
ATOM     29  C   UNL     1      43.186  -2.010  12.622  0.00  0.00    +0.000 C 
ATOM     30  C   UNL     1      43.345  -1.733  14.117  0.00  0.00    +0.000 C 
ATOM     31  C   UNL     1      43.532  -0.244  14.359  0.00  0.00    +0.000 C 
ATOM     32  C   UNL     1      43.338   0.543  13.077  0.00  0.00    +0.000 C 
ENDBRANCH  26  27
ENDBRANCH  24  26
ENDBRANCH  23  24
ENDBRANCH  10  23
TORSDOF 6
ENDMDL
MODEL 9
REMARK VINA RESULT:      -6.7      2.554      5.493
REMARK  Name = 
REMARK  6 active torsions:
REMARK  status: ('A' for Active; 'I' for Inactive)
REMARK    1  A    between atoms: C_8  and  C_9
REMARK    2  A    between atoms: C_15  and  C_16
REMARK    3  A    between atoms: N_22  and  C_23
REMARK    4  A    between atoms: C_23  and  C_24
REMARK    5  A    between atoms: C_24  and  C_26
REMARK    6  A    between atoms: C_26  and  N_27
REMARK                            x       y       z     vdW  Elec       q    Type
REMARK                         _______ _______ _______ _____ _____    ______ ____
ROOT
ATOM      1  C   UNL     1      34.602   1.763  16.552  0.00  0.00    +0.000 C 
ATOM      2  C   UNL     1      35.851   1.518  15.785  0.00  0.00    +0.000 A 
ATOM      3  C   UNL     1      36.390   2.501  14.965  0.00  0.00    +0.000 A 
ATOM      4  C   UNL     1      37.549   2.281  14.248  0.00  0.00    +0.000 A 
ATOM      5  C   UNL     1      38.215   1.088  14.316  0.00  0.00    +0.000 A 
ATOM      6  C   UNL     1      37.667   0.103  15.143  0.00  0.00    +0.000 A 
ATOM      7  C   UNL     1      36.511   0.317  15.859  0.00  0.00    +0.000 A 
ATOM      8  C   UNL     1      38.523  -1.006  15.043  0.00  0.00    +0.000 A 
ATOM      9  C   UNL     1      39.538  -0.672  14.181  0.00  0.00    +0.000 A 
ATOM     10  N   UNL     1      39.316   0.609  13.760  0.00  0.00    +0.000 N 
ENDROOT
BRANCH   8  11
ATOM     11  C   UNL     1      38.346  -2.252  15.734  0.00  0.00    +0.000 A 
ATOM     12  C   UNL     1      38.962  -2.649  16.887  0.00  0.00    +0.000 A 
ATOM     13  C   UNL     1      38.718  -3.872  17.463  0.00  0.00    +0.000 A 
ATOM     14  C   UNL     1      37.833  -4.771  16.911  0.00  0.00    +0.000 A 
ATOM     15  C   UNL     1      37.187  -4.400  15.735  0.00  0.00    +0.000 A 
ATOM     16  C   UNL     1      37.472  -3.179  15.216  0.00  0.00    +0.000 A 
ENDBRANCH   8  11
BRANCH   9  17
ATOM     17  C   UNL     1      40.649  -1.479  13.763  0.00  0.00    +0.000 A 
ATOM     18  C   UNL     1      41.913  -1.430  14.316  0.00  0.00    +0.000 A 
ATOM     19  C   UNL     1      42.971  -2.208  13.905  0.00  0.00    +0.000 A 
ATOM     20  C   UNL     1      42.806  -3.111  12.875  0.00  0.00    +0.000 A 
ATOM     21  C   UNL     1      41.564  -3.199  12.288  0.00  0.00    +0.000 A 
ATOM     22  C   UNL     1      40.560  -2.411  12.732  0.00  0.00    +0.000 A 
ENDBRANCH   9  17
BRANCH  10  23
ATOM     23  C   UNL     1      40.230   1.237  12.849  0.00  0.00    +0.000 C 
BRANCH  23  24
ATOM     24  C   UNL     1      39.683   1.001  11.341  0.00  0.00    +0.000 C 
ATOM     25  O   UNL     1      41.098   0.869  10.747  0.00  0.00    +0.000 OA
BRANCH  24  26
ATOM     26  C   UNL     1      39.643   2.576  10.894  0.00  0.00    +0.000 C 
BRANCH  26  27
ATOM     27  N   UNL     1      38.521   2.798  10.061  0.00  0.00    +0.000 NA
ATOM     28  C   UNL     1      38.038   1.632   9.368  0.00  0.00    +0.000 C 
ATOM     29  C   UNL     1      36.560   1.664   9.121  0.00  0.00    +0.000 C 
ATOM     30  C   UNL     1      36.158   3.048   8.616  0.00  0.00    +0.000 C 
ATOM     31  C   UNL     1      36.598   4.118   9.603  0.00  0.00    +0.000 C 
ATOM     32  C   UNL     1      37.448   3.520  10.708  0.00  0.00    +0.000 C 
ENDBRANCH  26  27
ENDBRANCH  24  26
ENDBRANCH  23  24
ENDBRANCH  10  23
TORSDOF 6
ENDMDL
MODEL 10
REMARK VINA RESULT:      -6.7      2.530      7.469
REMARK  Name = 
REMARK  6 active torsions:
REMARK  status: ('A' for Active; 'I' for Inactive)
REMARK    1  A    between atoms: C_8  and  C_9
REMARK    2  A    between atoms: C_15  and  C_16
REMARK    3  A    between atoms: N_22  and  C_23
REMARK    4  A    between atoms: C_23  and  C_24
REMARK    5  A    between atoms: C_24  and  C_26
REMARK    6  A    between atoms: C_26  and  N_27
REMARK                            x       y       z     vdW  Elec       q    Type
REMARK                         _______ _______ _______ _____ _____    ______ ____
ROOT
ATOM      1  C   UNL     1      43.534   6.298  13.514  0.00  0.00    +0.000 C 
ATOM      2  C   UNL     1      42.373   5.370  13.539  0.00  0.00    +0.000 A 
ATOM      3  C   UNL     1      42.273   4.328  12.626  0.00  0.00    +0.000 A 
ATOM      4  C   UNL     1      41.198   3.461  12.641  0.00  0.00    +0.000 A 
ATOM      5  C   UNL     1      40.191   3.591  13.556  0.00  0.00    +0.000 A 
ATOM      6  C   UNL     1      40.298   4.641  14.473  0.00  0.00    +0.000 A 
ATOM      7  C   UNL     1      41.367   5.508  14.461  0.00  0.00    +0.000 A 
ATOM      8  C   UNL     1      39.160   4.557  15.291  0.00  0.00    +0.000 A 
ATOM      9  C   UNL     1      38.414   3.489  14.860  0.00  0.00    +0.000 A 
ATOM     10  N   UNL     1      39.073   2.926  13.803  0.00  0.00    +0.000 N 
ENDROOT
BRANCH   8  11
ATOM     11  C   UNL     1      38.858   5.442  16.382  0.00  0.00    +0.000 A 
ATOM     12  C   UNL     1      38.272   6.674  16.305  0.00  0.00    +0.000 A 
ATOM     13  C   UNL     1      38.031   7.440  17.420  0.00  0.00    +0.000 A 
ATOM     14  C   UNL     1      38.365   7.007  18.684  0.00  0.00    +0.000 A 
ATOM     15  C   UNL     1      38.963   5.756  18.800  0.00  0.00    +0.000 A 
ATOM     16  C   UNL     1      39.175   5.050  17.661  0.00  0.00    +0.000 A 
ENDBRANCH   8  11
BRANCH   9  17
ATOM     17  C   UNL     1      37.166   3.009  15.382  0.00  0.00    +0.000 A 
ATOM     18  C   UNL     1      35.920   3.430  14.964  0.00  0.00    +0.000 A 
ATOM     19  C   UNL     1      34.731   2.963  15.474  0.00  0.00    +0.000 A 
ATOM     20  C   UNL     1      34.732   2.011  16.472  0.00  0.00    +0.000 A 
ATOM     21  C   UNL     1      35.950   1.557  16.927  0.00  0.00    +0.000 A 
ATOM     22  C   UNL     1      37.088   2.050  16.389  0.00  0.00    +0.000 A 
ENDBRANCH   9  17
BRANCH  10  23
ATOM     23  C   UNL     1      38.529   1.773  13.145  0.00  0.00    +0.000 C 
BRANCH  23  24
ATOM     24  C   UNL     1      39.338   0.467  13.662  0.00  0.00    +0.000 C 
ATOM     25  O   UNL     1      39.834   0.098  12.251  0.00  0.00    +0.000 OA
BRANCH  24  26
ATOM     26  C   UNL     1      38.108  -0.604  13.509  0.00  0.00    +0.000 C 
BRANCH  26  27
ATOM     27  N   UNL     1      37.664  -0.993  14.795  0.00  0.00    +0.000 NA
ATOM     28  C   UNL     1      36.321  -1.510  14.844  0.00  0.00    +0.000 C 
ATOM     29  C   UNL     1      36.123  -2.534  15.920  0.00  0.00    +0.000 C 
ATOM     30  C   UNL     1      36.780  -2.048  17.212  0.00  0.00    +0.000 C 
ATOM     31  C   UNL     1      38.250  -1.744  16.973  0.00  0.00    +0.000 C 
ATOM     32  C   UNL     1      38.593  -1.848  15.499  0.00  0.00    +0.000 C 
ENDBRANCH  26  27
ENDBRANCH  24  26
ENDBRANCH  23  24
ENDBRANCH  10  23
TORSDOF 6
ENDMDL
