MODEL 1
REMARK VINA RESULT:      -6.0      0.000      0.000
REMARK  Name = 
REMARK  3 active torsions:
REMARK  status: ('A' for Active; 'I' for Inactive)
REMARK    1  A    between atoms: C_6  and  C_7
REMARK    2  A    between atoms: C_7  and  N_8
REMARK    3  A    between atoms: C_9  and  C_11
REMARK                            x       y       z     vdW  Elec       q    Type
REMARK                         _______ _______ _______ _____ _____    ______ ____
ROOT
ATOM      1  C   UNL     1      13.079  12.651  36.524  0.00  0.00    +0.000 C 
ATOM      2  C   UNL     1      14.126  11.885  37.263  0.00  0.00    +0.000 A 
ATOM      3  C   UNL     1      15.434  11.622  36.913  0.00  0.00    +0.000 A 
ATOM      4  C   UNL     1      16.031  10.867  37.916  0.00  0.00    +0.000 A 
ATOM      5  C   UNL     1      17.296  10.329  38.095  0.00  0.00    +0.000 A 
ATOM      6  C   UNL     1      17.632   9.600  39.215  0.00  0.00    +0.000 A 
ATOM      7  C   UNL     1      16.645   9.425  40.167  0.00  0.00    +0.000 A 
ATOM      8  C   UNL     1      15.371   9.963  39.995  0.00  0.00    +0.000 A 
ATOM      9  C   UNL     1      15.046  10.691  38.868  0.00  0.00    +0.000 A 
ATOM     10  N   UNL     1      13.915  11.305  38.460  0.00  0.00    +0.000 NA
ENDROOT
BRANCH   6  11
ATOM     11  C   UNL     1      18.965   8.997  39.455  0.00  0.00    +0.000 C 
BRANCH  11  12
ATOM     12  N   UNL     1      19.987   9.370  38.549  0.00  0.00    +0.000 NA
ATOM     13  C   UNL     1      21.284   9.824  38.888  0.00  0.00    +0.000 C 
ATOM     14  O   UNL     1      21.550   9.904  40.112  0.00  0.00    +0.000 OA
BRANCH  13  15
ATOM     15  C   UNL     1      22.277  10.186  37.881  0.00  0.00    +0.000 A 
ATOM     16  C   UNL     1      22.304   9.744  36.594  0.00  0.00    +0.000 A 
ATOM     17  C   UNL     1      23.283  10.171  35.804  0.00  0.00    +0.000 A 
ATOM     18  C   UNL     1      24.203  11.031  36.343  0.00  0.00    +0.000 A 
ATOM     19  S   UNL     1      23.640  11.197  37.949  0.00  0.00    +0.000 S 
ENDBRANCH  13  15
ENDBRANCH  11  12
ENDBRANCH   6  11
TORSDOF 3
ENDMDL
MODEL 2
REMARK VINA RESULT:      -5.9      4.309      6.857
REMARK  Name = 
REMARK  3 active torsions:
REMARK  status: ('A' for Active; 'I' for Inactive)
REMARK    1  A    between atoms: C_6  and  C_7
REMARK    2  A    between atoms: C_7  and  N_8
REMARK    3  A    between atoms: C_9  and  C_11
REMARK                            x       y       z     vdW  Elec       q    Type
REMARK                         _______ _______ _______ _____ _____    ______ ____
ROOT
ATOM      1  C   UNL     1      22.380  15.853  39.802  0.00  0.00    +0.000 C 
ATOM      2  C   UNL     1      21.861  14.566  39.252  0.00  0.00    +0.000 A 
ATOM      3  C   UNL     1      20.559  14.154  39.060  0.00  0.00    +0.000 A 
ATOM      4  C   UNL     1      20.561  12.873  38.522  0.00  0.00    +0.000 A 
ATOM      5  C   UNL     1      19.567  11.986  38.136  0.00  0.00    +0.000 A 
ATOM      6  C   UNL     1      19.854  10.742  37.617  0.00  0.00    +0.000 A 
ATOM      7  C   UNL     1      21.189  10.408  37.495  0.00  0.00    +0.000 A 
ATOM      8  C   UNL     1      22.195  11.293  37.880  0.00  0.00    +0.000 A 
ATOM      9  C   UNL     1      21.895  12.537  38.399  0.00  0.00    +0.000 A 
ATOM     10  N   UNL     1      22.656  13.560  38.841  0.00  0.00    +0.000 NA
ENDROOT
BRANCH   6  11
ATOM     11  C   UNL     1      18.832   9.754  37.195  0.00  0.00    +0.000 C 
BRANCH  11  12
ATOM     12  N   UNL     1      18.220   9.991  35.941  0.00  0.00    +0.000 NA
ATOM     13  C   UNL     1      17.013  10.695  35.716  0.00  0.00    +0.000 C 
ATOM     14  O   UNL     1      16.431  11.151  36.731  0.00  0.00    +0.000 OA
BRANCH  13  15
ATOM     15  C   UNL     1      16.456  10.892  34.382  0.00  0.00    +0.000 A 
ATOM     16  C   UNL     1      16.946  10.361  33.227  0.00  0.00    +0.000 A 
ATOM     17  C   UNL     1      16.317  10.644  32.091  0.00  0.00    +0.000 A 
ATOM     18  C   UNL     1      15.214  11.453  32.161  0.00  0.00    +0.000 A 
ATOM     19  S   UNL     1      15.115  11.781  33.836  0.00  0.00    +0.000 S 
ENDBRANCH  13  15
ENDBRANCH  11  12
ENDBRANCH   6  11
TORSDOF 3
ENDMDL
MODEL 3
REMARK VINA RESULT:      -5.9     19.161     22.092
REMARK  Name = 
REMARK  3 active torsions:
REMARK  status: ('A' for Active; 'I' for Inactive)
REMARK    1  A    between atoms: C_6  and  C_7
REMARK    2  A    between atoms: C_7  and  N_8
REMARK    3  A    between atoms: C_9  and  C_11
REMARK                            x       y       z     vdW  Elec       q    Type
REMARK                         _______ _______ _______ _____ _____    ______ ____
ROOT
ATOM      1  C   UNL     1      30.187  22.697  31.786  0.00  0.00    +0.000 C 
ATOM      2  C   UNL     1      29.986  22.661  30.308  0.00  0.00    +0.000 A 
ATOM      3  C   UNL     1      30.921  22.612  29.295  0.00  0.00    +0.000 A 
ATOM      4  C   UNL     1      30.265  22.594  28.070  0.00  0.00    +0.000 A 
ATOM      5  C   UNL     1      30.687  22.550  26.750  0.00  0.00    +0.000 A 
ATOM      6  C   UNL     1      29.800  22.542  25.695  0.00  0.00    +0.000 A 
ATOM      7  C   UNL     1      28.454  22.579  26.009  0.00  0.00    +0.000 A 
ATOM      8  C   UNL     1      28.021  22.623  27.334  0.00  0.00    +0.000 A 
ATOM      9  C   UNL     1      28.920  22.631  28.382  0.00  0.00    +0.000 A 
ATOM     10  N   UNL     1      28.773  22.671  29.723  0.00  0.00    +0.000 NA
ENDROOT
BRANCH   6  11
ATOM     11  C   UNL     1      30.195  22.502  24.266  0.00  0.00    +0.000 C 
BRANCH  11  12
ATOM     12  N   UNL     1      29.964  23.686  23.525  0.00  0.00    +0.000 NA
ATOM     13  C   UNL     1      28.893  23.919  22.629  0.00  0.00    +0.000 C 
ATOM     14  O   UNL     1      28.071  22.983  22.480  0.00  0.00    +0.000 OA
BRANCH  13  15
ATOM     15  C   UNL     1      28.734  25.177  21.907  0.00  0.00    +0.000 A 
ATOM     16  C   UNL     1      29.486  25.589  20.849  0.00  0.00    +0.000 A 
ATOM     17  C   UNL     1      29.210  26.769  20.305  0.00  0.00    +0.000 A 
ATOM     18  C   UNL     1      28.182  27.493  20.848  0.00  0.00    +0.000 A 
ATOM     19  S   UNL     1      27.651  26.469  22.110  0.00  0.00    +0.000 S 
ENDBRANCH  13  15
ENDBRANCH  11  12
ENDBRANCH   6  11
TORSDOF 3
ENDMDL
MODEL 4
REMARK VINA RESULT:      -5.8      3.938      7.422
REMARK  Name = 
REMARK  3 active torsions:
REMARK  status: ('A' for Active; 'I' for Inactive)
REMARK    1  A    between atoms: C_6  and  C_7
REMARK    2  A    between atoms: C_7  and  N_8
REMARK    3  A    between atoms: C_9  and  C_11
REMARK                            x       y       z     vdW  Elec       q    Type
REMARK                         _______ _______ _______ _____ _____    ______ ____
ROOT
ATOM      1  C   UNL     1      25.777  12.545  38.790  0.00  0.00    +0.000 C 
ATOM      2  C   UNL     1      24.334  12.231  38.569  0.00  0.00    +0.000 A 
ATOM      3  C   UNL     1      23.754  11.107  38.019  0.00  0.00    +0.000 A 
ATOM      4  C   UNL     1      22.372  11.263  38.016  0.00  0.00    +0.000 A 
ATOM      5  C   UNL     1      21.313  10.474  37.594  0.00  0.00    +0.000 A 
ATOM      6  C   UNL     1      20.002  10.881  37.712  0.00  0.00    +0.000 A 
ATOM      7  C   UNL     1      19.781  12.123  38.276  0.00  0.00    +0.000 A 
ATOM      8  C   UNL     1      20.840  12.923  38.703  0.00  0.00    +0.000 A 
ATOM      9  C   UNL     1      22.150  12.504  38.580  0.00  0.00    +0.000 A 
ATOM     10  N   UNL     1      23.333  13.068  38.902  0.00  0.00    +0.000 NA
ENDROOT
BRANCH   6  11
ATOM     11  C   UNL     1      18.833  10.082  37.272  0.00  0.00    +0.000 C 
BRANCH  11  12
ATOM     12  N   UNL     1      18.038  10.654  36.250  0.00  0.00    +0.000 NA
ATOM     13  C   UNL     1      17.416   9.962  35.184  0.00  0.00    +0.000 C 
ATOM     14  O   UNL     1      17.589   8.719  35.144  0.00  0.00    +0.000 OA
BRANCH  13  15
ATOM     15  C   UNL     1      16.610  10.639  34.173  0.00  0.00    +0.000 A 
ATOM     16  C   UNL     1      16.759  10.521  32.825  0.00  0.00    +0.000 A 
ATOM     17  C   UNL     1      15.939  11.211  32.040  0.00  0.00    +0.000 A 
ATOM     18  C   UNL     1      14.994  11.997  32.645  0.00  0.00    +0.000 A 
ATOM     19  S   UNL     1      15.311  11.725  34.303  0.00  0.00    +0.000 S 
ENDBRANCH  13  15
ENDBRANCH  11  12
ENDBRANCH   6  11
TORSDOF 3
ENDMDL
MODEL 5
REMARK VINA RESULT:      -5.7     18.450     20.582
REMARK  Name = 
REMARK  3 active torsions:
REMARK  status: ('A' for Active; 'I' for Inactive)
REMARK    1  A    between atoms: C_6  and  C_7
REMARK    2  A    between atoms: C_7  and  N_8
REMARK    3  A    between atoms: C_9  and  C_11
REMARK                            x       y       z     vdW  Elec       q    Type
REMARK                         _______ _______ _______ _____ _____    ______ ____
ROOT
ATOM      1  C   UNL     1      24.763  26.417  32.179  0.00  0.00    +0.000 C 
ATOM      2  C   UNL     1      25.217  25.596  31.019  0.00  0.00    +0.000 A 
ATOM      3  C   UNL     1      24.930  25.736  29.677  0.00  0.00    +0.000 A 
ATOM      4  C   UNL     1      25.579  24.734  28.965  0.00  0.00    +0.000 A 
ATOM      5  C   UNL     1      25.648  24.393  27.623  0.00  0.00    +0.000 A 
ATOM      6  C   UNL     1      26.386  23.319  27.174  0.00  0.00    +0.000 A 
ATOM      7  C   UNL     1      27.066  22.586  28.128  0.00  0.00    +0.000 A 
ATOM      8  C   UNL     1      27.002  22.921  29.480  0.00  0.00    +0.000 A 
ATOM      9  C   UNL     1      26.259  23.999  29.917  0.00  0.00    +0.000 A 
ATOM     10  N   UNL     1      26.030  24.529  31.137  0.00  0.00    +0.000 NA
ENDROOT
BRANCH   6  11
ATOM     11  C   UNL     1      26.490  22.907  25.754  0.00  0.00    +0.000 C 
BRANCH  11  12
ATOM     12  N   UNL     1      27.207  23.783  24.904  0.00  0.00    +0.000 NA
ATOM     13  C   UNL     1      27.092  23.866  23.496  0.00  0.00    +0.000 C 
ATOM     14  O   UNL     1      26.274  23.085  22.951  0.00  0.00    +0.000 OA
BRANCH  13  15
ATOM     15  C   UNL     1      27.874  24.806  22.698  0.00  0.00    +0.000 A 
ATOM     16  C   UNL     1      28.729  24.477  21.691  0.00  0.00    +0.000 A 
ATOM     17  C   UNL     1      29.367  25.460  21.065  0.00  0.00    +0.000 A 
ATOM     18  C   UNL     1      29.119  26.742  21.478  0.00  0.00    +0.000 A 
ATOM     19  S   UNL     1      27.991  26.500  22.740  0.00  0.00    +0.000 S 
ENDBRANCH  13  15
ENDBRANCH  11  12
ENDBRANCH   6  11
TORSDOF 3
ENDMDL
MODEL 6
REMARK VINA RESULT:      -5.6      3.227      8.099
REMARK  Name = 
REMARK  3 active torsions:
REMARK  status: ('A' for Active; 'I' for Inactive)
REMARK    1  A    between atoms: C_6  and  C_7
REMARK    2  A    between atoms: C_7  and  N_8
REMARK    3  A    between atoms: C_9  and  C_11
REMARK                            x       y       z     vdW  Elec       q    Type
REMARK                         _______ _______ _______ _____ _____    ______ ____
ROOT
ATOM      1  C   UNL     1      27.422   9.434  38.833  0.00  0.00    +0.000 C 
ATOM      2  C   UNL     1      25.980   9.518  38.457  0.00  0.00    +0.000 A 
ATOM      3  C   UNL     1      24.857   9.413  39.252  0.00  0.00    +0.000 A 
ATOM      4  C   UNL     1      23.724   9.556  38.460  0.00  0.00    +0.000 A 
ATOM      5  C   UNL     1      22.361   9.538  38.713  0.00  0.00    +0.000 A 
ATOM      6  C   UNL     1      21.426   9.709  37.715  0.00  0.00    +0.000 A 
ATOM      7  C   UNL     1      21.907   9.903  36.434  0.00  0.00    +0.000 A 
ATOM      8  C   UNL     1      23.276   9.922  36.170  0.00  0.00    +0.000 A 
ATOM      9  C   UNL     1      24.203   9.749  37.179  0.00  0.00    +0.000 A 
ATOM     10  N   UNL     1      25.552   9.723  37.197  0.00  0.00    +0.000 NA
ENDROOT
BRANCH   6  11
ATOM     11  C   UNL     1      19.959   9.693  37.929  0.00  0.00    +0.000 C 
BRANCH  11  12
ATOM     12  N   UNL     1      19.165  10.061  36.816  0.00  0.00    +0.000 NA
ATOM     13  C   UNL     1      17.772  10.307  36.823  0.00  0.00    +0.000 C 
ATOM     14  O   UNL     1      17.185  10.186  37.927  0.00  0.00    +0.000 OA
BRANCH  13  15
ATOM     15  C   UNL     1      17.034  10.684  35.622  0.00  0.00    +0.000 A 
ATOM     16  C   UNL     1      15.934  11.486  35.580  0.00  0.00    +0.000 A 
ATOM     17  C   UNL     1      15.380  11.729  34.398  0.00  0.00    +0.000 A 
ATOM     18  C   UNL     1      15.957  11.155  33.296  0.00  0.00    +0.000 A 
ATOM     19  S   UNL     1      17.262  10.292  33.985  0.00  0.00    +0.000 S 
ENDBRANCH  13  15
ENDBRANCH  11  12
ENDBRANCH   6  11
TORSDOF 3
ENDMDL
MODEL 7
REMARK VINA RESULT:      -5.6     18.968     22.042
REMARK  Name = 
REMARK  3 active torsions:
REMARK  status: ('A' for Active; 'I' for Inactive)
REMARK    1  A    between atoms: C_6  and  C_7
REMARK    2  A    between atoms: C_7  and  N_8
REMARK    3  A    between atoms: C_9  and  C_11
REMARK                            x       y       z     vdW  Elec       q    Type
REMARK                         _______ _______ _______ _____ _____    ______ ____
ROOT
ATOM      1  C   UNL     1      29.585  26.783  19.814  0.00  0.00    +0.000 C 
ATOM      2  C   UNL     1      29.064  25.909  20.906  0.00  0.00    +0.000 A 
ATOM      3  C   UNL     1      27.806  25.861  21.468  0.00  0.00    +0.000 A 
ATOM      4  C   UNL     1      27.786  24.886  22.459  0.00  0.00    +0.000 A 
ATOM      5  C   UNL     1      26.815  24.416  23.331  0.00  0.00    +0.000 A 
ATOM      6  C   UNL     1      27.070  23.412  24.240  0.00  0.00    +0.000 A 
ATOM      7  C   UNL     1      28.348  22.886  24.249  0.00  0.00    +0.000 A 
ATOM      8  C   UNL     1      29.329  23.353  23.377  0.00  0.00    +0.000 A 
ATOM      9  C   UNL     1      29.062  24.359  22.470  0.00  0.00    +0.000 A 
ATOM     10  N   UNL     1      29.811  24.983  21.536  0.00  0.00    +0.000 NA
ENDROOT
BRANCH   6  11
ATOM     11  C   UNL     1      26.073  22.876  25.198  0.00  0.00    +0.000 C 
BRANCH  11  12
ATOM     12  N   UNL     1      25.622  23.775  26.193  0.00  0.00    +0.000 NA
ATOM     13  C   UNL     1      26.033  23.804  27.548  0.00  0.00    +0.000 C 
ATOM     14  O   UNL     1      26.880  22.945  27.896  0.00  0.00    +0.000 OA
BRANCH  13  15
ATOM     15  C   UNL     1      25.512  24.774  28.506  0.00  0.00    +0.000 A 
ATOM     16  C   UNL     1      24.563  25.717  28.250  0.00  0.00    +0.000 A 
ATOM     17  C   UNL     1      24.201  26.526  29.238  0.00  0.00    +0.000 A 
ATOM     18  C   UNL     1      24.810  26.355  30.454  0.00  0.00    +0.000 A 
ATOM     19  S   UNL     1      25.872  25.053  30.142  0.00  0.00    +0.000 S 
ENDBRANCH  13  15
ENDBRANCH  11  12
ENDBRANCH   6  11
TORSDOF 3
ENDMDL
MODEL 8
REMARK VINA RESULT:      -5.5     22.456     24.055
REMARK  Name = 
REMARK  3 active torsions:
REMARK  status: ('A' for Active; 'I' for Inactive)
REMARK    1  A    between atoms: C_6  and  C_7
REMARK    2  A    between atoms: C_7  and  N_8
REMARK    3  A    between atoms: C_9  and  C_11
REMARK                            x       y       z     vdW  Elec       q    Type
REMARK                         _______ _______ _______ _____ _____    ______ ____
ROOT
ATOM      1  C   UNL     1      18.067  -6.245  26.693  0.00  0.00    +0.000 C 
ATOM      2  C   UNL     1      19.382  -6.697  26.152  0.00  0.00    +0.000 A 
ATOM      3  C   UNL     1      19.955  -7.952  26.171  0.00  0.00    +0.000 A 
ATOM      4  C   UNL     1      21.195  -7.896  25.545  0.00  0.00    +0.000 A 
ATOM      5  C   UNL     1      22.186  -8.829  25.282  0.00  0.00    +0.000 A 
ATOM      6  C   UNL     1      23.352  -8.497  24.627  0.00  0.00    +0.000 A 
ATOM      7  C   UNL     1      23.497  -7.178  24.237  0.00  0.00    +0.000 A 
ATOM      8  C   UNL     1      22.506  -6.234  24.498  0.00  0.00    +0.000 A 
ATOM      9  C   UNL     1      21.341  -6.579  25.155  0.00  0.00    +0.000 A 
ATOM     10  N   UNL     1      20.249  -5.879  25.527  0.00  0.00    +0.000 NA
ENDROOT
BRANCH   6  11
ATOM     11  C   UNL     1      24.446  -9.451  24.325  0.00  0.00    +0.000 C 
BRANCH  11  12
ATOM     12  N   UNL     1      25.592  -8.904  23.699  0.00  0.00    +0.000 NA
ATOM     13  C   UNL     1      26.257  -9.426  22.564  0.00  0.00    +0.000 C 
ATOM     14  O   UNL     1      25.782 -10.476  22.066  0.00  0.00    +0.000 OA
BRANCH  13  15
ATOM     15  C   UNL     1      27.436  -8.790  21.984  0.00  0.00    +0.000 A 
ATOM     16  C   UNL     1      27.834  -7.505  22.196  0.00  0.00    +0.000 A 
ATOM     17  C   UNL     1      28.936  -7.081  21.587  0.00  0.00    +0.000 A 
ATOM     18  C   UNL     1      29.599  -7.971  20.785  0.00  0.00    +0.000 A 
ATOM     19  S   UNL     1      28.631  -9.373  20.927  0.00  0.00    +0.000 S 
ENDBRANCH  13  15
ENDBRANCH  11  12
ENDBRANCH   6  11
TORSDOF 3
ENDMDL
MODEL 9
REMARK VINA RESULT:      -5.4      1.732      2.074
REMARK  Name = 
REMARK  3 active torsions:
REMARK  status: ('A' for Active; 'I' for Inactive)
REMARK    1  A    between atoms: C_6  and  C_7
REMARK    2  A    between atoms: C_7  and  N_8
REMARK    3  A    between atoms: C_9  and  C_11
REMARK                            x       y       z     vdW  Elec       q    Type
REMARK                         _______ _______ _______ _____ _____    ______ ____
ROOT
ATOM      1  C   UNL     1      14.405  12.890  34.359  0.00  0.00    +0.000 C 
ATOM      2  C   UNL     1      15.297  12.168  35.314  0.00  0.00    +0.000 A 
ATOM      3  C   UNL     1      16.577  11.689  35.130  0.00  0.00    +0.000 A 
ATOM      4  C   UNL     1      17.010  11.084  36.304  0.00  0.00    +0.000 A 
ATOM      5  C   UNL     1      18.181  10.447  36.686  0.00  0.00    +0.000 A 
ATOM      6  C   UNL     1      18.353   9.921  37.949  0.00  0.00    +0.000 A 
ATOM      7  C   UNL     1      17.298  10.057  38.832  0.00  0.00    +0.000 A 
ATOM      8  C   UNL     1      16.117  10.696  38.456  0.00  0.00    +0.000 A 
ATOM      9  C   UNL     1      15.957  11.218  37.188  0.00  0.00    +0.000 A 
ATOM     10  N   UNL     1      14.943  11.868  36.578  0.00  0.00    +0.000 NA
ENDROOT
BRANCH   6  11
ATOM     11  C   UNL     1      19.579   9.226  38.409  0.00  0.00    +0.000 C 
BRANCH  11  12
ATOM     12  N   UNL     1      20.739  10.027  38.530  0.00  0.00    +0.000 NA
ATOM     13  C   UNL     1      21.753  10.189  37.556  0.00  0.00    +0.000 C 
ATOM     14  O   UNL     1      21.605   9.558  36.481  0.00  0.00    +0.000 OA
BRANCH  13  15
ATOM     15  C   UNL     1      22.917  11.042  37.770  0.00  0.00    +0.000 A 
ATOM     16  C   UNL     1      23.899  11.293  36.860  0.00  0.00    +0.000 A 
ATOM     17  C   UNL     1      24.895  12.096  37.218  0.00  0.00    +0.000 A 
ATOM     18  C   UNL     1      24.865  12.619  38.483  0.00  0.00    +0.000 A 
ATOM     19  S   UNL     1      23.425  11.948  39.114  0.00  0.00    +0.000 S 
ENDBRANCH  13  15
ENDBRANCH  11  12
ENDBRANCH   6  11
TORSDOF 3
ENDMDL
MODEL 10
REMARK VINA RESULT:      -5.4     19.373     21.393
REMARK  Name = 
REMARK  3 active torsions:
REMARK  status: ('A' for Active; 'I' for Inactive)
REMARK    1  A    between atoms: C_6  and  C_7
REMARK    2  A    between atoms: C_7  and  N_8
REMARK    3  A    between atoms: C_9  and  C_11
REMARK                            x       y       z     vdW  Elec       q    Type
REMARK                         _______ _______ _______ _____ _____    ______ ____
ROOT
ATOM      1  C   UNL     1      29.436  25.894  20.333  0.00  0.00    +0.000 C 
ATOM      2  C   UNL     1      28.945  25.172  21.543  0.00  0.00    +0.000 A 
ATOM      3  C   UNL     1      29.634  24.776  22.670  0.00  0.00    +0.000 A 
ATOM      4  C   UNL     1      28.759  24.132  23.537  0.00  0.00    +0.000 A 
ATOM      5  C   UNL     1      28.895  23.542  24.784  0.00  0.00    +0.000 A 
ATOM      6  C   UNL     1      27.833  22.957  25.440  0.00  0.00    +0.000 A 
ATOM      7  C   UNL     1      26.610  22.984  24.797  0.00  0.00    +0.000 A 
ATOM      8  C   UNL     1      26.464  23.575  23.544  0.00  0.00    +0.000 A 
ATOM      9  C   UNL     1      27.535  24.158  22.896  0.00  0.00    +0.000 A 
ATOM     10  N   UNL     1      27.667  24.782  21.707  0.00  0.00    +0.000 NA
ENDROOT
BRANCH   6  11
ATOM     11  C   UNL     1      27.924  22.307  26.769  0.00  0.00    +0.000 C 
BRANCH  11  12
ATOM     12  N   UNL     1      29.220  22.218  27.330  0.00  0.00    +0.000 NA
ATOM     13  C   UNL     1      29.662  22.837  28.524  0.00  0.00    +0.000 C 
ATOM     14  O   UNL     1      28.819  23.533  29.142  0.00  0.00    +0.000 OA
BRANCH  13  15
ATOM     15  C   UNL     1      31.023  22.687  29.029  0.00  0.00    +0.000 A 
ATOM     16  C   UNL     1      31.870  21.659  28.744  0.00  0.00    +0.000 A 
ATOM     17  C   UNL     1      33.080  21.674  29.291  0.00  0.00    +0.000 A 
ATOM     18  C   UNL     1      33.395  22.728  30.106  0.00  0.00    +0.000 A 
ATOM     19  S   UNL     1      31.959  23.654  30.065  0.00  0.00    +0.000 S 
ENDBRANCH  13  15
ENDBRANCH  11  12
ENDBRANCH   6  11
TORSDOF 3
ENDMDL
