MODEL 1
REMARK VINA RESULT:      -6.9      0.000      0.000
REMARK  Name = 
REMARK  2 active torsions:
REMARK  status: ('A' for Active; 'I' for Inactive)
REMARK    1  A    between atoms: C_4  and  C_6
REMARK    2  A    between atoms: C_9  and  N_10
REMARK                            x       y       z     vdW  Elec       q    Type
REMARK                         _______ _______ _______ _____ _____    ______ ____
ROOT
ATOM      1  C   UNL     1      29.215  25.175  24.879  0.00  0.00    +0.000 C 
ATOM      2  C   UNL     1      28.122  25.768  23.797  0.00  0.00    +0.000 C 
ATOM      3  O   UNL     1      26.954  25.003  24.340  0.00  0.00    +0.000 OA
ATOM      4  C   UNL     1      27.128  23.791  24.717  0.00  0.00    +0.000 C 
ATOM      5  O   UNL     1      26.133  23.004  24.070  0.00  0.00    +0.000 OA
ATOM      6  C   UNL     1      28.372  23.017  24.411  0.00  0.00    +0.000 C 
ATOM      7  C   UNL     1      28.752  23.497  23.086  0.00  0.00    +0.000 C 
ATOM      8  N   UNL     1      28.475  24.752  22.661  0.00  0.00    +0.000 N 
ATOM      9  C   UNL     1      27.444  24.910  21.650  0.00  0.00    +0.000 C 
ATOM     10  C   UNL     1      27.122  26.395  21.643  0.00  0.00    +0.000 C 
ATOM     11  C   UNL     1      28.420  27.219  21.600  0.00  0.00    +0.000 C 
ATOM     12  C   UNL     1      29.473  26.275  21.077  0.00  0.00    +0.000 C 
ATOM     13  C   UNL     1      29.749  25.293  22.188  0.00  0.00    +0.000 C 
ENDROOT
BRANCH   4  14
ATOM     14  C   UNL     1      26.878  23.585  26.195  0.00  0.00    +0.000 A 
ATOM     15  C   UNL     1      25.891  24.300  26.848  0.00  0.00    +0.000 A 
ATOM     16  C   UNL     1      25.647  24.139  28.183  0.00  0.00    +0.000 A 
ATOM     17  C   UNL     1      26.392  23.237  28.945  0.00  0.00    +0.000 A 
ATOM     18  C   UNL     1      27.362  22.538  28.284  0.00  0.00    +0.000 A 
ATOM     19  C   UNL     1      27.605  22.701  26.948  0.00  0.00    +0.000 A 
BRANCH  17  20
ATOM     20  N   UNL     1      26.129  23.080  30.331  0.00  0.00    +0.000 N 
ATOM     21  O   UNL     1      26.054  24.084  31.048  0.00  0.00    +0.000 OA
ATOM     22  O   UNL     1      25.955  21.815  30.832  0.00  0.00    +0.000 OA
ENDBRANCH  17  20
ENDBRANCH   4  14
TORSDOF 2
ENDMDL
MODEL 2
REMARK VINA RESULT:      -6.5     31.476     32.902
REMARK  Name = 
REMARK  2 active torsions:
REMARK  status: ('A' for Active; 'I' for Inactive)
REMARK    1  A    between atoms: C_4  and  C_6
REMARK    2  A    between atoms: C_9  and  N_10
REMARK                            x       y       z     vdW  Elec       q    Type
REMARK                         _______ _______ _______ _____ _____    ______ ____
ROOT
ATOM      1  C   UNL     1      22.312  -9.337  23.099  0.00  0.00    +0.000 C 
ATOM      2  C   UNL     1      23.772  -9.481  23.851  0.00  0.00    +0.000 C 
ATOM      3  O   UNL     1      23.462  -8.512  24.951  0.00  0.00    +0.000 OA
ATOM      4  C   UNL     1      22.808  -7.446  24.671  0.00  0.00    +0.000 C 
ATOM      5  O   UNL     1      23.549  -6.350  25.199  0.00  0.00    +0.000 OA
ATOM      6  C   UNL     1      22.557  -6.993  23.267  0.00  0.00    +0.000 C 
ATOM      7  C   UNL     1      23.774  -7.384  22.563  0.00  0.00    +0.000 C 
ATOM      8  N   UNL     1      24.513  -8.457  22.929  0.00  0.00    +0.000 N 
ATOM      9  C   UNL     1      25.798  -8.210  23.560  0.00  0.00    +0.000 C 
ATOM     10  C   UNL     1      26.208  -9.546  24.158  0.00  0.00    +0.000 C 
ATOM     11  C   UNL     1      26.026 -10.669  23.123  0.00  0.00    +0.000 C 
ATOM     12  C   UNL     1      25.999  -9.975  21.784  0.00  0.00    +0.000 C 
ATOM     13  C   UNL     1      24.680  -9.250  21.710  0.00  0.00    +0.000 C 
ENDROOT
BRANCH   4  14
ATOM     14  C   UNL     1      21.466  -7.371  25.365  0.00  0.00    +0.000 A 
ATOM     15  C   UNL     1      20.722  -6.205  25.334  0.00  0.00    +0.000 A 
ATOM     16  C   UNL     1      19.509  -6.106  25.957  0.00  0.00    +0.000 A 
ATOM     17  C   UNL     1      18.971  -7.189  26.655  0.00  0.00    +0.000 A 
ATOM     18  C   UNL     1      19.718  -8.332  26.675  0.00  0.00    +0.000 A 
ATOM     19  C   UNL     1      20.931  -8.429  26.050  0.00  0.00    +0.000 A 
BRANCH  17  20
ATOM     20  N   UNL     1      17.712  -7.072  27.298  0.00  0.00    +0.000 N 
ATOM     21  O   UNL     1      17.243  -8.052  27.890  0.00  0.00    +0.000 OA
ATOM     22  O   UNL     1      17.054  -5.869  27.254  0.00  0.00    +0.000 OA
ENDBRANCH  17  20
ENDBRANCH   4  14
TORSDOF 2
ENDMDL
MODEL 3
REMARK VINA RESULT:      -6.4      1.261      1.611
REMARK  Name = 
REMARK  2 active torsions:
REMARK  status: ('A' for Active; 'I' for Inactive)
REMARK    1  A    between atoms: C_4  and  C_6
REMARK    2  A    between atoms: C_9  and  N_10
REMARK                            x       y       z     vdW  Elec       q    Type
REMARK                         _______ _______ _______ _____ _____    ______ ____
ROOT
ATOM      1  C   UNL     1      28.831  25.162  25.342  0.00  0.00    +0.000 C 
ATOM      2  C   UNL     1      27.836  25.312  24.036  0.00  0.00    +0.000 C 
ATOM      3  O   UNL     1      26.614  24.786  24.726  0.00  0.00    +0.000 OA
ATOM      4  C   UNL     1      26.735  23.796  25.530  0.00  0.00    +0.000 C 
ATOM      5  O   UNL     1      25.777  22.819  25.136  0.00  0.00    +0.000 OA
ATOM      6  C   UNL     1      27.982  22.974  25.624  0.00  0.00    +0.000 C 
ATOM      7  C   UNL     1      28.473  22.944  24.250  0.00  0.00    +0.000 C 
ATOM      8  N   UNL     1      28.254  23.956  23.378  0.00  0.00    +0.000 N 
ATOM      9  C   UNL     1      27.307  23.727  22.301  0.00  0.00    +0.000 C 
ATOM     10  C   UNL     1      27.017  25.105  21.730  0.00  0.00    +0.000 C 
ATOM     11  C   UNL     1      28.331  25.869  21.493  0.00  0.00    +0.000 C 
ATOM     12  C   UNL     1      29.401  24.809  21.433  0.00  0.00    +0.000 C 
ATOM     13  C   UNL     1      29.572  24.300  22.842  0.00  0.00    +0.000 C 
ENDROOT
BRANCH   4  14
ATOM     14  C   UNL     1      26.368  24.138  26.957  0.00  0.00    +0.000 A 
ATOM     15  C   UNL     1      25.610  25.260  27.240  0.00  0.00    +0.000 A 
ATOM     16  C   UNL     1      25.269  25.597  28.519  0.00  0.00    +0.000 A 
ATOM     17  C   UNL     1      25.677  24.813  29.600  0.00  0.00    +0.000 A 
ATOM     18  C   UNL     1      26.424  23.709  29.304  0.00  0.00    +0.000 A 
ATOM     19  C   UNL     1      26.764  23.373  28.022  0.00  0.00    +0.000 A 
BRANCH  17  20
ATOM     20  N   UNL     1      25.317  25.175  30.924  0.00  0.00    +0.000 N 
ATOM     21  O   UNL     1      26.050  24.839  31.862  0.00  0.00    +0.000 OA
ATOM     22  O   UNL     1      24.169  25.899  31.124  0.00  0.00    +0.000 OA
ENDBRANCH  17  20
ENDBRANCH   4  14
TORSDOF 2
ENDMDL
MODEL 4
REMARK VINA RESULT:      -6.2     20.502     21.922
REMARK  Name = 
REMARK  2 active torsions:
REMARK  status: ('A' for Active; 'I' for Inactive)
REMARK    1  A    between atoms: C_4  and  C_6
REMARK    2  A    between atoms: C_9  and  N_10
REMARK                            x       y       z     vdW  Elec       q    Type
REMARK                         _______ _______ _______ _____ _____    ______ ____
ROOT
ATOM      1  C   UNL     1      26.049   5.439  15.114  0.00  0.00    +0.000 C 
ATOM      2  C   UNL     1      27.633   5.383  15.567  0.00  0.00    +0.000 C 
ATOM      3  O   UNL     1      27.395   4.607  16.825  0.00  0.00    +0.000 OA
ATOM      4  C   UNL     1      26.368   4.884  17.540  0.00  0.00    +0.000 C 
ATOM      5  O   UNL     1      26.828   5.084  18.873  0.00  0.00    +0.000 OA
ATOM      6  C   UNL     1      25.534   6.108  17.321  0.00  0.00    +0.000 C 
ATOM      7  C   UNL     1      26.509   7.113  16.911  0.00  0.00    +0.000 C 
ATOM      8  N   UNL     1      27.642   6.795  16.241  0.00  0.00    +0.000 N 
ATOM      9  C   UNL     1      28.900   6.886  16.960  0.00  0.00    +0.000 C 
ATOM     10  C   UNL     1      29.906   6.152  16.090  0.00  0.00    +0.000 C 
ATOM     11  C   UNL     1      29.783   6.616  14.629  0.00  0.00    +0.000 C 
ATOM     12  C   UNL     1      29.088   7.952  14.694  0.00  0.00    +0.000 C 
ATOM     13  C   UNL     1      27.655   7.666  15.064  0.00  0.00    +0.000 C 
ENDROOT
BRANCH   4  14
ATOM     14  C   UNL     1      25.385   3.739  17.641  0.00  0.00    +0.000 A 
ATOM     15  C   UNL     1      25.765   2.452  17.302  0.00  0.00    +0.000 A 
ATOM     16  C   UNL     1      24.897   1.400  17.378  0.00  0.00    +0.000 A 
ATOM     17  C   UNL     1      23.580   1.585  17.805  0.00  0.00    +0.000 A 
ATOM     18  C   UNL     1      23.222   2.861  18.137  0.00  0.00    +0.000 A 
ATOM     19  C   UNL     1      24.093   3.913  18.060  0.00  0.00    +0.000 A 
BRANCH  17  20
ATOM     20  N   UNL     1      22.689   0.484  17.879  0.00  0.00    +0.000 N 
ATOM     21  O   UNL     1      21.487   0.692  18.081  0.00  0.00    +0.000 OA
ATOM     22  O   UNL     1      23.187  -0.784  17.711  0.00  0.00    +0.000 OA
ENDBRANCH  17  20
ENDBRANCH   4  14
TORSDOF 2
ENDMDL
MODEL 5
REMARK VINA RESULT:      -6.2     28.726     31.003
REMARK  Name = 
REMARK  2 active torsions:
REMARK  status: ('A' for Active; 'I' for Inactive)
REMARK    1  A    between atoms: C_4  and  C_6
REMARK    2  A    between atoms: C_9  and  N_10
REMARK                            x       y       z     vdW  Elec       q    Type
REMARK                         _______ _______ _______ _____ _____    ______ ____
ROOT
ATOM      1  C   UNL     1      35.775  -5.860  31.768  0.00  0.00    +0.000 C 
ATOM      2  C   UNL     1      34.630  -5.812  30.584  0.00  0.00    +0.000 C 
ATOM      3  O   UNL     1      33.615  -5.067  31.396  0.00  0.00    +0.000 OA
ATOM      4  C   UNL     1      33.474  -5.364  32.634  0.00  0.00    +0.000 C 
ATOM      5  O   UNL     1      32.085  -5.595  32.852  0.00  0.00    +0.000 OA
ATOM      6  C   UNL     1      34.083  -6.583  33.251  0.00  0.00    +0.000 C 
ATOM      7  C   UNL     1      34.008  -7.576  32.185  0.00  0.00    +0.000 C 
ATOM      8  N   UNL     1      34.060  -7.240  30.874  0.00  0.00    +0.000 N 
ATOM      9  C   UNL     1      32.836  -7.346  30.100  0.00  0.00    +0.000 C 
ATOM     10  C   UNL     1      33.116  -6.589  28.813  0.00  0.00    +0.000 C 
ATOM     11  C   UNL     1      34.473  -7.017  28.229  0.00  0.00    +0.000 C 
ATOM     12  C   UNL     1      34.770  -8.356  28.856  0.00  0.00    +0.000 C 
ATOM     13  C   UNL     1      35.110  -8.082  30.298  0.00  0.00    +0.000 C 
ENDROOT
BRANCH   4  14
ATOM     14  C   UNL     1      33.822  -4.223  33.565  0.00  0.00    +0.000 A 
ATOM     15  C   UNL     1      33.527  -2.917  33.219  0.00  0.00    +0.000 A 
ATOM     16  C   UNL     1      33.836  -1.866  34.036  0.00  0.00    +0.000 A 
ATOM     17  C   UNL     1      34.467  -2.074  35.264  0.00  0.00    +0.000 A 
ATOM     18  C   UNL     1      34.751  -3.370  35.591  0.00  0.00    +0.000 A 
ATOM     19  C   UNL     1      34.440  -4.420  34.771  0.00  0.00    +0.000 A 
BRANCH  17  20
ATOM     20  N   UNL     1      34.783  -0.975  36.103  0.00  0.00    +0.000 N 
ATOM     21  O   UNL     1      33.929  -0.102  36.303  0.00  0.00    +0.000 OA
ATOM     22  O   UNL     1      36.027  -0.918  36.679  0.00  0.00    +0.000 OA
ENDBRANCH  17  20
ENDBRANCH   4  14
TORSDOF 2
ENDMDL
MODEL 6
REMARK VINA RESULT:      -6.0      4.349      7.689
REMARK  Name = 
REMARK  2 active torsions:
REMARK  status: ('A' for Active; 'I' for Inactive)
REMARK    1  A    between atoms: C_4  and  C_6
REMARK    2  A    between atoms: C_9  and  N_10
REMARK                            x       y       z     vdW  Elec       q    Type
REMARK                         _______ _______ _______ _____ _____    ______ ____
ROOT
ATOM      1  C   UNL     1      32.642  23.905  27.984  0.00  0.00    +0.000 C 
ATOM      2  C   UNL     1      32.475  22.530  28.879  0.00  0.00    +0.000 C 
ATOM      3  O   UNL     1      31.142  22.150  28.310  0.00  0.00    +0.000 OA
ATOM      4  C   UNL     1      30.278  23.070  28.088  0.00  0.00    +0.000 C 
ATOM      5  O   UNL     1      29.066  22.665  28.716  0.00  0.00    +0.000 OA
ATOM      6  C   UNL     1      30.431  24.468  28.601  0.00  0.00    +0.000 C 
ATOM      7  C   UNL     1      31.079  24.285  29.896  0.00  0.00    +0.000 C 
ATOM      8  N   UNL     1      31.915  23.251  30.150  0.00  0.00    +0.000 N 
ATOM      9  C   UNL     1      31.440  22.197  31.029  0.00  0.00    +0.000 C 
ATOM     10  C   UNL     1      32.421  21.052  30.839  0.00  0.00    +0.000 C 
ATOM     11  C   UNL     1      33.866  21.572  30.921  0.00  0.00    +0.000 C 
ATOM     12  C   UNL     1      33.773  22.890  31.647  0.00  0.00    +0.000 C 
ATOM     13  C   UNL     1      33.134  23.859  30.685  0.00  0.00    +0.000 C 
ENDROOT
BRANCH   4  14
ATOM     14  C   UNL     1      29.923  23.214  26.625  0.00  0.00    +0.000 A 
ATOM     15  C   UNL     1      29.074  24.221  26.202  0.00  0.00    +0.000 A 
ATOM     16  C   UNL     1      28.730  24.371  24.888  0.00  0.00    +0.000 A 
ATOM     17  C   UNL     1      29.228  23.505  23.913  0.00  0.00    +0.000 A 
ATOM     18  C   UNL     1      30.065  22.516  24.347  0.00  0.00    +0.000 A 
ATOM     19  C   UNL     1      30.408  22.368  25.663  0.00  0.00    +0.000 A 
BRANCH  17  20
ATOM     20  N   UNL     1      28.862  23.670  22.552  0.00  0.00    +0.000 N 
ATOM     21  O   UNL     1      29.647  24.235  21.780  0.00  0.00    +0.000 OA
ATOM     22  O   UNL     1      27.649  23.188  22.129  0.00  0.00    +0.000 OA
ENDBRANCH  17  20
ENDBRANCH   4  14
TORSDOF 2
ENDMDL
MODEL 7
REMARK VINA RESULT:      -6.0      3.132      3.663
REMARK  Name = 
REMARK  2 active torsions:
REMARK  status: ('A' for Active; 'I' for Inactive)
REMARK    1  A    between atoms: C_4  and  C_6
REMARK    2  A    between atoms: C_9  and  N_10
REMARK                            x       y       z     vdW  Elec       q    Type
REMARK                         _______ _______ _______ _____ _____    ______ ____
ROOT
ATOM      1  C   UNL     1      30.286  24.855  25.267  0.00  0.00    +0.000 C 
ATOM      2  C   UNL     1      28.674  25.194  25.216  0.00  0.00    +0.000 C 
ATOM      3  O   UNL     1      28.284  24.194  26.261  0.00  0.00    +0.000 OA
ATOM      4  C   UNL     1      28.861  23.050  26.269  0.00  0.00    +0.000 C 
ATOM      5  O   UNL     1      27.833  22.064  26.294  0.00  0.00    +0.000 OA
ATOM      6  C   UNL     1      29.717  22.565  25.141  0.00  0.00    +0.000 C 
ATOM      7  C   UNL     1      29.062  23.114  23.959  0.00  0.00    +0.000 C 
ATOM      8  N   UNL     1      28.370  24.278  23.985  0.00  0.00    +0.000 N 
ATOM      9  C   UNL     1      26.923  24.206  23.888  0.00  0.00    +0.000 C 
ATOM     10  C   UNL     1      26.431  25.585  24.294  0.00  0.00    +0.000 C 
ATOM     11  C   UNL     1      27.230  26.673  23.556  0.00  0.00    +0.000 C 
ATOM     12  C   UNL     1      27.833  25.979  22.360  0.00  0.00    +0.000 C 
ATOM     13  C   UNL     1      28.922  25.084  22.895  0.00  0.00    +0.000 C 
ENDROOT
BRANCH   4  14
ATOM     14  C   UNL     1      29.666  22.796  27.525  0.00  0.00    +0.000 A 
ATOM     15  C   UNL     1      30.901  22.177  27.456  0.00  0.00    +0.000 A 
ATOM     16  C   UNL     1      31.647  21.930  28.574  0.00  0.00    +0.000 A 
ATOM     17  C   UNL     1      31.186  22.296  29.840  0.00  0.00    +0.000 A 
ATOM     18  C   UNL     1      29.965  22.906  29.890  0.00  0.00    +0.000 A 
ATOM     19  C   UNL     1      29.220  23.154  28.769  0.00  0.00    +0.000 A 
BRANCH  17  20
ATOM     20  N   UNL     1      31.970  22.032  30.993  0.00  0.00    +0.000 N 
ATOM     21  O   UNL     1      32.781  22.882  31.378  0.00  0.00    +0.000 OA
ATOM     22  O   UNL     1      31.795  20.842  31.654  0.00  0.00    +0.000 OA
ENDBRANCH  17  20
ENDBRANCH   4  14
TORSDOF 2
ENDMDL
MODEL 8
REMARK VINA RESULT:      -5.9      2.621      7.101
REMARK  Name = 
REMARK  2 active torsions:
REMARK  status: ('A' for Active; 'I' for Inactive)
REMARK    1  A    between atoms: C_4  and  C_6
REMARK    2  A    between atoms: C_9  and  N_10
REMARK                            x       y       z     vdW  Elec       q    Type
REMARK                         _______ _______ _______ _____ _____    ______ ____
ROOT
ATOM      1  C   UNL     1      26.767  25.477  25.427  0.00  0.00    +0.000 C 
ATOM      2  C   UNL     1      27.827  24.806  26.496  0.00  0.00    +0.000 C 
ATOM      3  O   UNL     1      28.839  24.409  25.466  0.00  0.00    +0.000 OA
ATOM      4  C   UNL     1      28.431  23.942  24.344  0.00  0.00    +0.000 C 
ATOM      5  O   UNL     1      29.123  22.716  24.126  0.00  0.00    +0.000 OA
ATOM      6  C   UNL     1      27.011  23.533  24.104  0.00  0.00    +0.000 C 
ATOM      7  C   UNL     1      26.594  22.985  25.390  0.00  0.00    +0.000 C 
ATOM      8  N   UNL     1      27.106  23.419  26.566  0.00  0.00    +0.000 N 
ATOM      9  C   UNL     1      28.011  22.534  27.277  0.00  0.00    +0.000 C 
ATOM     10  C   UNL     1      28.671  23.408  28.331  0.00  0.00    +0.000 C 
ATOM     11  C   UNL     1      27.610  24.235  29.075  0.00  0.00    +0.000 C 
ATOM     12  C   UNL     1      26.307  23.513  28.842  0.00  0.00    +0.000 C 
ATOM     13  C   UNL     1      25.947  23.749  27.397  0.00  0.00    +0.000 C 
ENDROOT
BRANCH   4  14
ATOM     14  C   UNL     1      28.806  24.810  23.164  0.00  0.00    +0.000 A 
ATOM     15  C   UNL     1      29.053  26.160  23.334  0.00  0.00    +0.000 A 
ATOM     16  C   UNL     1      29.388  26.970  22.285  0.00  0.00    +0.000 A 
ATOM     17  C   UNL     1      29.496  26.459  20.990  0.00  0.00    +0.000 A 
ATOM     18  C   UNL     1      29.250  25.124  20.840  0.00  0.00    +0.000 A 
ATOM     19  C   UNL     1      28.915  24.315  21.892  0.00  0.00    +0.000 A 
BRANCH  17  20
ATOM     20  N   UNL     1      29.843  27.311  19.910  0.00  0.00    +0.000 N 
ATOM     21  O   UNL     1      30.610  26.894  19.035  0.00  0.00    +0.000 OA
ATOM     22  O   UNL     1      29.306  28.573  19.863  0.00  0.00    +0.000 OA
ENDBRANCH  17  20
ENDBRANCH   4  14
TORSDOF 2
ENDMDL
MODEL 9
REMARK VINA RESULT:      -5.9      3.718      7.589
REMARK  Name = 
REMARK  2 active torsions:
REMARK  status: ('A' for Active; 'I' for Inactive)
REMARK    1  A    between atoms: C_4  and  C_6
REMARK    2  A    between atoms: C_9  and  N_10
REMARK                            x       y       z     vdW  Elec       q    Type
REMARK                         _______ _______ _______ _____ _____    ______ ____
ROOT
ATOM      1  C   UNL     1      28.996  22.722  28.648  0.00  0.00    +0.000 C 
ATOM      2  C   UNL     1      29.676  23.989  29.453  0.00  0.00    +0.000 C 
ATOM      3  O   UNL     1      30.433  24.519  28.274  0.00  0.00    +0.000 OA
ATOM      4  C   UNL     1      30.990  23.689  27.472  0.00  0.00    +0.000 C 
ATOM      5  O   UNL     1      32.348  24.095  27.327  0.00  0.00    +0.000 OA
ATOM      6  C   UNL     1      31.142  22.234  27.786  0.00  0.00    +0.000 C 
ATOM      7  C   UNL     1      31.374  22.221  29.227  0.00  0.00    +0.000 C 
ATOM      8  N   UNL     1      30.860  23.161  30.054  0.00  0.00    +0.000 N 
ATOM      9  C   UNL     1      31.777  24.133  30.625  0.00  0.00    +0.000 C 
ATOM     10  C   UNL     1      30.888  25.226  31.194  0.00  0.00    +0.000 C 
ATOM     11  C   UNL     1      29.754  24.609  32.029  0.00  0.00    +0.000 C 
ATOM     12  C   UNL     1      30.231  23.223  32.383  0.00  0.00    +0.000 C 
ATOM     13  C   UNL     1      30.172  22.417  31.110  0.00  0.00    +0.000 C 
ENDROOT
BRANCH   4  14
ATOM     14  C   UNL     1      30.423  23.742  26.070  0.00  0.00    +0.000 A 
ATOM     15  C   UNL     1      30.418  22.614  25.270  0.00  0.00    +0.000 A 
ATOM     16  C   UNL     1      29.918  22.634  23.998  0.00  0.00    +0.000 A 
ATOM     17  C   UNL     1      29.389  23.805  23.454  0.00  0.00    +0.000 A 
ATOM     18  C   UNL     1      29.401  24.910  24.257  0.00  0.00    +0.000 A 
ATOM     19  C   UNL     1      29.902  24.887  25.530  0.00  0.00    +0.000 A 
BRANCH  17  20
ATOM     20  N   UNL     1      28.874  23.813  22.131  0.00  0.00    +0.000 N 
ATOM     21  O   UNL     1      27.718  23.421  21.931  0.00  0.00    +0.000 OA
ATOM     22  O   UNL     1      29.674  24.266  21.112  0.00  0.00    +0.000 OA
ENDBRANCH  17  20
ENDBRANCH   4  14
TORSDOF 2
ENDMDL
MODEL 10
REMARK VINA RESULT:      -5.9     24.714     27.734
REMARK  Name = 
REMARK  2 active torsions:
REMARK  status: ('A' for Active; 'I' for Inactive)
REMARK    1  A    between atoms: C_4  and  C_6
REMARK    2  A    between atoms: C_9  and  N_10
REMARK                            x       y       z     vdW  Elec       q    Type
REMARK                         _______ _______ _______ _____ _____    ______ ____
ROOT
ATOM      1  C   UNL     1      35.716  -0.784  36.677  0.00  0.00    +0.000 C 
ATOM      2  C   UNL     1      35.167  -1.916  35.611  0.00  0.00    +0.000 C 
ATOM      3  O   UNL     1      34.114  -1.041  35.004  0.00  0.00    +0.000 OA
ATOM      4  C   UNL     1      33.436  -0.266  35.766  0.00  0.00    +0.000 C 
ATOM      5  O   UNL     1      32.060  -0.502  35.487  0.00  0.00    +0.000 OA
ATOM      6  C   UNL     1      33.463  -0.370  37.259  0.00  0.00    +0.000 C 
ATOM      7  C   UNL     1      33.587  -1.804  37.496  0.00  0.00    +0.000 C 
ATOM      8  N   UNL     1      34.222  -2.631  36.632  0.00  0.00    +0.000 N 
ATOM      9  C   UNL     1      33.407  -3.545  35.850  0.00  0.00    +0.000 C 
ATOM     10  C   UNL     1      34.332  -4.063  34.760  0.00  0.00    +0.000 C 
ATOM     11  C   UNL     1      35.673  -4.506  35.368  0.00  0.00    +0.000 C 
ATOM     12  C   UNL     1      35.390  -4.734  36.831  0.00  0.00    +0.000 C 
ATOM     13  C   UNL     1      35.193  -3.370  37.442  0.00  0.00    +0.000 C 
ENDROOT
BRANCH   4  14
ATOM     14  C   UNL     1      33.643   1.201  35.461  0.00  0.00    +0.000 A 
ATOM     15  C   UNL     1      33.960   2.093  36.469  0.00  0.00    +0.000 A 
ATOM     16  C   UNL     1      34.146   3.424  36.223  0.00  0.00    +0.000 A 
ATOM     17  C   UNL     1      34.022   3.940  34.932  0.00  0.00    +0.000 A 
ATOM     18  C   UNL     1      33.709   3.045  33.947  0.00  0.00    +0.000 A 
ATOM     19  C   UNL     1      33.523   1.713  34.196  0.00  0.00    +0.000 A 
BRANCH  17  20
ATOM     20  N   UNL     1      34.216   5.324  34.690  0.00  0.00    +0.000 N 
ATOM     21  O   UNL     1      33.229   6.061  34.572  0.00  0.00    +0.000 OA
ATOM     22  O   UNL     1      35.497   5.808  34.605  0.00  0.00    +0.000 OA
ENDBRANCH  17  20
ENDBRANCH   4  14
TORSDOF 2
ENDMDL
