MODEL 1
REMARK VINA RESULT:      -8.0      0.000      0.000
REMARK  Name = 
REMARK  8 active torsions:
REMARK  status: ('A' for Active; 'I' for Inactive)
REMARK    1  A    between atoms: C_2  and  O_3
REMARK    2  A    between atoms: O_3  and  C_4
REMARK    3  A    between atoms: C_7  and  N_8
REMARK    4  A    between atoms: C_11  and  N_12
REMARK    5  A    between atoms: N_12  and  C_13
REMARK    6  A    between atoms: C_17  and  O_18
REMARK    7  A    between atoms: C_21  and  S_22
REMARK    8  A    between atoms: S_22  and  C_23
REMARK                            x       y       z     vdW  Elec       q    Type
REMARK                         _______ _______ _______ _____ _____    ______ ____
ROOT
ATOM      1  N   UNL     1      36.188   5.114  14.241  0.00  0.00    +0.000 N 
ATOM      2  C   UNL     1      35.812   3.955  14.945  0.00  0.00    +0.000 C 
ATOM      3  O   UNL     1      34.799   3.263  14.597  0.00  0.00    +0.000 OA
ATOM      4  C   UNL     1      36.731   3.742  16.037  0.00  0.00    +0.000 C 
ATOM      5  C   UNL     1      37.647   4.719  16.030  0.00  0.00    +0.000 C 
ATOM      6  C   UNL     1      37.350   5.600  14.926  0.00  0.00    +0.000 C 
ATOM      7  O   UNL     1      37.958   6.630  14.569  0.00  0.00    +0.000 OA
ENDROOT
BRANCH   1  11
ATOM      8  C   UNL     1      34.388   6.947  10.881  0.00  0.00    +0.000 A 
ATOM      9  C   UNL     1      33.875   7.123  12.162  0.00  0.00    +0.000 A 
ATOM     10  C   UNL     1      34.478   6.517  13.236  0.00  0.00    +0.000 A 
ATOM     11  C   UNL     1      35.610   5.711  13.101  0.00  0.00    +0.000 A 
ATOM     12  C   UNL     1      36.104   5.547  11.833  0.00  0.00    +0.000 A 
ATOM     13  C   UNL     1      35.488   6.165  10.736  0.00  0.00    +0.000 A 
BRANCH   8  14
ATOM     14  O   UNL     1      33.782   7.557   9.797  0.00  0.00    +0.000 OA
BRANCH  14  16
ATOM     15  C   UNL     1      33.578   6.947   7.526  0.00  0.00    +0.000 C 
ATOM     16  C   UNL     1      34.358   7.764   8.543  0.00  0.00    +0.000 C 
ENDBRANCH  14  16
ENDBRANCH   8  14
ENDBRANCH   1  11
BRANCH   4  17
ATOM     17  N   UNL     1      36.672   2.676  16.945  0.00  0.00    +0.000 NA
BRANCH  17  18
ATOM     18  C   UNL     1      36.258   1.371  16.674  0.00  0.00    +0.000 A 
ATOM     19  C   UNL     1      35.126   0.837  17.226  0.00  0.00    +0.000 A 
ATOM     20  C   UNL     1      34.790  -0.460  16.896  0.00  0.00    +0.000 A 
ATOM     21  C   UNL     1      35.562  -1.209  16.038  0.00  0.00    +0.000 A 
ATOM     22  C   UNL     1      36.714  -0.689  15.465  0.00  0.00    +0.000 A 
ATOM     23  C   UNL     1      37.033   0.616  15.809  0.00  0.00    +0.000 A 
BRANCH  22  24
ATOM     24  O   UNL     1      37.498  -1.430  14.602  0.00  0.00    +0.000 OA
ATOM     25  C   UNL     1      36.999  -2.662  14.133  0.00  0.00    +0.000 C 
ENDBRANCH  22  24
ENDBRANCH  17  18
ENDBRANCH   4  17
BRANCH   5  26
ATOM     26  S   UNL     1      38.940   4.787  17.225  0.00  0.00    +0.000 S 
BRANCH  26  27
ATOM     27  C   UNL     1      38.854   6.129  18.344  0.00  0.00    +0.000 A 
ATOM     28  C   UNL     1      37.989   7.172  18.355  0.00  0.00    +0.000 A 
ATOM     29  C   UNL     1      37.991   8.197  19.273  0.00  0.00    +0.000 A 
ATOM     30  C   UNL     1      38.939   8.192  20.282  0.00  0.00    +0.000 A 
ATOM     31  C   UNL     1      39.839   7.149  20.310  0.00  0.00    +0.000 A 
ATOM     32  C   UNL     1      39.812   6.138  19.376  0.00  0.00    +0.000 A 
ENDBRANCH  26  27
ENDBRANCH   5  26
TORSDOF 8
ENDMDL
MODEL 2
REMARK VINA RESULT:      -7.9      4.094      7.236
REMARK  Name = 
REMARK  8 active torsions:
REMARK  status: ('A' for Active; 'I' for Inactive)
REMARK    1  A    between atoms: C_2  and  O_3
REMARK    2  A    between atoms: O_3  and  C_4
REMARK    3  A    between atoms: C_7  and  N_8
REMARK    4  A    between atoms: C_11  and  N_12
REMARK    5  A    between atoms: N_12  and  C_13
REMARK    6  A    between atoms: C_17  and  O_18
REMARK    7  A    between atoms: C_21  and  S_22
REMARK    8  A    between atoms: S_22  and  C_23
REMARK                            x       y       z     vdW  Elec       q    Type
REMARK                         _______ _______ _______ _____ _____    ______ ____
ROOT
ATOM      1  N   UNL     1      38.200   3.927  15.998  0.00  0.00    +0.000 N 
ATOM      2  C   UNL     1      37.220   2.919  16.065  0.00  0.00    +0.000 C 
ATOM      3  O   UNL     1      36.305   2.936  16.953  0.00  0.00    +0.000 OA
ATOM      4  C   UNL     1      37.453   1.958  15.015  0.00  0.00    +0.000 C 
ATOM      5  C   UNL     1      38.531   2.335  14.314  0.00  0.00    +0.000 C 
ATOM      6  C   UNL     1      39.032   3.560  14.890  0.00  0.00    +0.000 C 
ATOM      7  O   UNL     1      40.017   4.239  14.536  0.00  0.00    +0.000 OA
ENDROOT
BRANCH   1  11
ATOM      8  C   UNL     1      38.761   7.318  18.464  0.00  0.00    +0.000 A 
ATOM      9  C   UNL     1      39.093   6.040  18.905  0.00  0.00    +0.000 A 
ATOM     10  C   UNL     1      38.901   4.957  18.085  0.00  0.00    +0.000 A 
ATOM     11  C   UNL     1      38.374   5.077  16.797  0.00  0.00    +0.000 A 
ATOM     12  C   UNL     1      38.052   6.342  16.377  0.00  0.00    +0.000 A 
ATOM     13  C   UNL     1      38.248   7.449  17.214  0.00  0.00    +0.000 A 
BRANCH   8  14
ATOM     14  O   UNL     1      38.953   8.412  19.289  0.00  0.00    +0.000 OA
BRANCH  14  16
ATOM     15  C   UNL     1      38.482   9.896  21.063  0.00  0.00    +0.000 C 
ATOM     16  C   UNL     1      38.737   8.451  20.666  0.00  0.00    +0.000 C 
ENDBRANCH  14  16
ENDBRANCH   8  14
ENDBRANCH   1  11
BRANCH   4  17
ATOM     17  N   UNL     1      36.668   0.824  14.769  0.00  0.00    +0.000 NA
BRANCH  17  18
ATOM     18  C   UNL     1      36.889  -0.465  15.256  0.00  0.00    +0.000 A 
ATOM     19  C   UNL     1      36.529  -1.582  14.554  0.00  0.00    +0.000 A 
ATOM     20  C   UNL     1      36.792  -2.816  15.111  0.00  0.00    +0.000 A 
ATOM     21  C   UNL     1      37.398  -2.937  16.341  0.00  0.00    +0.000 A 
ATOM     22  C   UNL     1      37.773  -1.819  17.072  0.00  0.00    +0.000 A 
ATOM     23  C   UNL     1      37.500  -0.589  16.493  0.00  0.00    +0.000 A 
BRANCH  22  24
ATOM     24  O   UNL     1      38.382  -1.927  18.308  0.00  0.00    +0.000 OA
ATOM     25  C   UNL     1      37.567  -2.095  19.446  0.00  0.00    +0.000 C 
ENDBRANCH  22  24
ENDBRANCH  17  18
ENDBRANCH   4  17
BRANCH   5  26
ATOM     26  S   UNL     1      39.121   1.398  12.942  0.00  0.00    +0.000 S 
BRANCH  26  27
ATOM     27  C   UNL     1      39.749  -0.186  13.335  0.00  0.00    +0.000 A 
ATOM     28  C   UNL     1      40.498  -0.563  14.399  0.00  0.00    +0.000 A 
ATOM     29  C   UNL     1      40.960  -1.838  14.634  0.00  0.00    +0.000 A 
ATOM     30  C   UNL     1      40.652  -2.841  13.730  0.00  0.00    +0.000 A 
ATOM     31  C   UNL     1      39.891  -2.502  12.633  0.00  0.00    +0.000 A 
ATOM     32  C   UNL     1      39.444  -1.217  12.425  0.00  0.00    +0.000 A 
ENDBRANCH  26  27
ENDBRANCH   5  26
TORSDOF 8
ENDMDL
MODEL 3
REMARK VINA RESULT:      -7.9      4.153      7.541
REMARK  Name = 
REMARK  8 active torsions:
REMARK  status: ('A' for Active; 'I' for Inactive)
REMARK    1  A    between atoms: C_2  and  O_3
REMARK    2  A    between atoms: O_3  and  C_4
REMARK    3  A    between atoms: C_7  and  N_8
REMARK    4  A    between atoms: C_11  and  N_12
REMARK    5  A    between atoms: N_12  and  C_13
REMARK    6  A    between atoms: C_17  and  O_18
REMARK    7  A    between atoms: C_21  and  S_22
REMARK    8  A    between atoms: S_22  and  C_23
REMARK                            x       y       z     vdW  Elec       q    Type
REMARK                         _______ _______ _______ _____ _____    ______ ____
ROOT
ATOM      1  N   UNL     1      38.193   3.896  15.975  0.00  0.00    +0.000 N 
ATOM      2  C   UNL     1      38.974   3.462  14.887  0.00  0.00    +0.000 C 
ATOM      3  O   UNL     1      40.016   4.099  14.520  0.00  0.00    +0.000 OA
ATOM      4  C   UNL     1      38.397   2.262  14.335  0.00  0.00    +0.000 C 
ATOM      5  C   UNL     1      37.299   1.947  15.036  0.00  0.00    +0.000 C 
ATOM      6  C   UNL     1      37.131   2.938  16.071  0.00  0.00    +0.000 C 
ATOM      7  O   UNL     1      36.236   3.012  16.937  0.00  0.00    +0.000 OA
ENDROOT
BRANCH   1  11
ATOM      8  C   UNL     1      38.752   7.156  18.612  0.00  0.00    +0.000 A 
ATOM      9  C   UNL     1      39.114   5.862  18.974  0.00  0.00    +0.000 A 
ATOM     10  C   UNL     1      38.922   4.822  18.100  0.00  0.00    +0.000 A 
ATOM     11  C   UNL     1      38.366   5.003  16.832  0.00  0.00    +0.000 A 
ATOM     12  C   UNL     1      38.014   6.283  16.489  0.00  0.00    +0.000 A 
ATOM     13  C   UNL     1      38.210   7.346  17.382  0.00  0.00    +0.000 A 
BRANCH   8  14
ATOM     14  O   UNL     1      38.944   8.207  19.491  0.00  0.00    +0.000 OA
BRANCH  14  16
ATOM     15  C   UNL     1      38.624   9.904  21.100  0.00  0.00    +0.000 C 
ATOM     16  C   UNL     1      37.979   8.762  20.332  0.00  0.00    +0.000 C 
ENDBRANCH  14  16
ENDBRANCH   8  14
ENDBRANCH   1  11
BRANCH   4  17
ATOM     17  N   UNL     1      38.914   1.543  13.249  0.00  0.00    +0.000 NA
BRANCH  17  18
ATOM     18  C   UNL     1      39.640   0.353  13.307  0.00  0.00    +0.000 A 
ATOM     19  C   UNL     1      40.545   0.099  14.300  0.00  0.00    +0.000 A 
ATOM     20  C   UNL     1      41.213  -1.108  14.280  0.00  0.00    +0.000 A 
ATOM     21  C   UNL     1      40.987  -2.041  13.295  0.00  0.00    +0.000 A 
ATOM     22  C   UNL     1      40.073  -1.807  12.277  0.00  0.00    +0.000 A 
ATOM     23  C   UNL     1      39.412  -0.589  12.317  0.00  0.00    +0.000 A 
BRANCH  22  24
ATOM     24  O   UNL     1      39.836  -2.736  11.282  0.00  0.00    +0.000 OA
ATOM     25  C   UNL     1      40.419  -2.526  10.015  0.00  0.00    +0.000 C 
ENDBRANCH  22  24
ENDBRANCH  17  18
ENDBRANCH   4  17
BRANCH   5  26
ATOM     26  S   UNL     1      36.325   0.530  14.647  0.00  0.00    +0.000 S 
BRANCH  26  27
ATOM     27  C   UNL     1      37.044  -1.009  15.068  0.00  0.00    +0.000 A 
ATOM     28  C   UNL     1      36.953  -2.194  14.420  0.00  0.00    +0.000 A 
ATOM     29  C   UNL     1      37.548  -3.368  14.822  0.00  0.00    +0.000 A 
ATOM     30  C   UNL     1      38.311  -3.372  15.978  0.00  0.00    +0.000 A 
ATOM     31  C   UNL     1      38.432  -2.186  16.668  0.00  0.00    +0.000 A 
ATOM     32  C   UNL     1      37.823  -1.028  16.241  0.00  0.00    +0.000 A 
ENDBRANCH  26  27
ENDBRANCH   5  26
TORSDOF 8
ENDMDL
MODEL 4
REMARK VINA RESULT:      -7.7      1.535      7.217
REMARK  Name = 
REMARK  8 active torsions:
REMARK  status: ('A' for Active; 'I' for Inactive)
REMARK    1  A    between atoms: C_2  and  O_3
REMARK    2  A    between atoms: O_3  and  C_4
REMARK    3  A    between atoms: C_7  and  N_8
REMARK    4  A    between atoms: C_11  and  N_12
REMARK    5  A    between atoms: N_12  and  C_13
REMARK    6  A    between atoms: C_17  and  O_18
REMARK    7  A    between atoms: C_21  and  S_22
REMARK    8  A    between atoms: S_22  and  C_23
REMARK                            x       y       z     vdW  Elec       q    Type
REMARK                         _______ _______ _______ _____ _____    ______ ____
ROOT
ATOM      1  N   UNL     1      36.834   2.665  15.572  0.00  0.00    +0.000 N 
ATOM      2  C   UNL     1      36.624   3.297  14.332  0.00  0.00    +0.000 C 
ATOM      3  O   UNL     1      36.132   2.667  13.338  0.00  0.00    +0.000 OA
ATOM      4  C   UNL     1      37.043   4.673  14.422  0.00  0.00    +0.000 C 
ATOM      5  C   UNL     1      37.501   4.908  15.659  0.00  0.00    +0.000 C 
ATOM      6  C   UNL     1      37.391   3.684  16.415  0.00  0.00    +0.000 C 
ATOM      7  O   UNL     1      37.706   3.473  17.603  0.00  0.00    +0.000 OA
ENDROOT
BRANCH   1  11
ATOM      8  C   UNL     1      35.945  -1.281  16.810  0.00  0.00    +0.000 A 
ATOM      9  C   UNL     1      35.082  -0.224  17.086  0.00  0.00    +0.000 A 
ATOM     10  C   UNL     1      35.394   1.047  16.673  0.00  0.00    +0.000 A 
ATOM     11  C   UNL     1      36.567   1.339  15.972  0.00  0.00    +0.000 A 
ATOM     12  C   UNL     1      37.407   0.288  15.708  0.00  0.00    +0.000 A 
ATOM     13  C   UNL     1      37.088  -1.010  16.130  0.00  0.00    +0.000 A 
BRANCH   8  14
ATOM     14  O   UNL     1      35.633  -2.563  17.225  0.00  0.00    +0.000 OA
BRANCH  14  16
ATOM     15  C   UNL     1      34.572  -3.634  15.409  0.00  0.00    +0.000 C 
ATOM     16  C   UNL     1      35.685  -3.716  16.441  0.00  0.00    +0.000 C 
ENDBRANCH  14  16
ENDBRANCH   8  14
ENDBRANCH   1  11
BRANCH   4  17
ATOM     17  N   UNL     1      36.970   5.610  13.381  0.00  0.00    +0.000 NA
BRANCH  17  18
ATOM     18  C   UNL     1      35.809   6.150  12.827  0.00  0.00    +0.000 A 
ATOM     19  C   UNL     1      34.720   6.475  13.588  0.00  0.00    +0.000 A 
ATOM     20  C   UNL     1      33.617   7.010  12.955  0.00  0.00    +0.000 A 
ATOM     21  C   UNL     1      33.597   7.217  11.595  0.00  0.00    +0.000 A 
ATOM     22  C   UNL     1      34.690   6.896  10.801  0.00  0.00    +0.000 A 
ATOM     23  C   UNL     1      35.787   6.361  11.458  0.00  0.00    +0.000 A 
BRANCH  22  24
ATOM     24  O   UNL     1      34.682   7.099   9.434  0.00  0.00    +0.000 OA
ATOM     25  C   UNL     1      34.723   8.423   8.952  0.00  0.00    +0.000 C 
ENDBRANCH  22  24
ENDBRANCH  17  18
ENDBRANCH   4  17
BRANCH   5  26
ATOM     26  S   UNL     1      38.103   6.493  16.141  0.00  0.00    +0.000 S 
BRANCH  26  27
ATOM     27  C   UNL     1      39.212   6.492  17.494  0.00  0.00    +0.000 A 
ATOM     28  C   UNL     1      40.535   6.203  17.507  0.00  0.00    +0.000 A 
ATOM     29  C   UNL     1      41.342   6.220  18.622  0.00  0.00    +0.000 A 
ATOM     30  C   UNL     1      40.788   6.556  19.845  0.00  0.00    +0.000 A 
ATOM     31  C   UNL     1      39.444   6.859  19.878  0.00  0.00    +0.000 A 
ATOM     32  C   UNL     1      38.663   6.832  18.745  0.00  0.00    +0.000 A 
ENDBRANCH  26  27
ENDBRANCH   5  26
TORSDOF 8
ENDMDL
MODEL 5
REMARK VINA RESULT:      -7.6      1.830      7.103
REMARK  Name = 
REMARK  8 active torsions:
REMARK  status: ('A' for Active; 'I' for Inactive)
REMARK    1  A    between atoms: C_2  and  O_3
REMARK    2  A    between atoms: O_3  and  C_4
REMARK    3  A    between atoms: C_7  and  N_8
REMARK    4  A    between atoms: C_11  and  N_12
REMARK    5  A    between atoms: N_12  and  C_13
REMARK    6  A    between atoms: C_17  and  O_18
REMARK    7  A    between atoms: C_21  and  S_22
REMARK    8  A    between atoms: S_22  and  C_23
REMARK                            x       y       z     vdW  Elec       q    Type
REMARK                         _______ _______ _______ _____ _____    ______ ____
ROOT
ATOM      1  N   UNL     1      36.229   2.194  15.261  0.00  0.00    +0.000 N 
ATOM      2  C   UNL     1      35.358   3.245  14.919  0.00  0.00    +0.000 C 
ATOM      3  O   UNL     1      34.104   3.054  14.785  0.00  0.00    +0.000 OA
ATOM      4  C   UNL     1      36.116   4.462  14.770  0.00  0.00    +0.000 C 
ATOM      5  C   UNL     1      37.409   4.199  15.002  0.00  0.00    +0.000 C 
ATOM      6  C   UNL     1      37.530   2.796  15.314  0.00  0.00    +0.000 C 
ATOM      7  O   UNL     1      38.559   2.148  15.592  0.00  0.00    +0.000 OA
ENDROOT
BRANCH   1  11
ATOM      8  C   UNL     1      35.351  -1.853  16.127  0.00  0.00    +0.000 A 
ATOM      9  C   UNL     1      34.905  -0.823  16.950  0.00  0.00    +0.000 A 
ATOM     10  C   UNL     1      35.204   0.481  16.647  0.00  0.00    +0.000 A 
ATOM     11  C   UNL     1      35.954   0.835  15.523  0.00  0.00    +0.000 A 
ATOM     12  C   UNL     1      36.386  -0.190  14.721  0.00  0.00    +0.000 A 
ATOM     13  C   UNL     1      36.080  -1.522  15.031  0.00  0.00    +0.000 A 
BRANCH   8  14
ATOM     14  O   UNL     1      35.050  -3.169  16.431  0.00  0.00    +0.000 OA
BRANCH  14  16
ATOM     15  C   UNL     1      33.710  -4.370  14.904  0.00  0.00    +0.000 C 
ATOM     16  C   UNL     1      35.084  -4.244  15.543  0.00  0.00    +0.000 C 
ENDBRANCH  14  16
ENDBRANCH   8  14
ENDBRANCH   1  11
BRANCH   4  17
ATOM     17  N   UNL     1      35.577   5.714  14.444  0.00  0.00    +0.000 NA
BRANCH  17  18
ATOM     18  C   UNL     1      35.170   6.144  13.180  0.00  0.00    +0.000 A 
ATOM     19  C   UNL     1      34.051   6.908  12.996  0.00  0.00    +0.000 A 
ATOM     20  C   UNL     1      33.728   7.292  11.710  0.00  0.00    +0.000 A 
ATOM     21  C   UNL     1      34.500   6.923  10.633  0.00  0.00    +0.000 A 
ATOM     22  C   UNL     1      35.640   6.148  10.795  0.00  0.00    +0.000 A 
ATOM     23  C   UNL     1      35.946   5.775  12.094  0.00  0.00    +0.000 A 
BRANCH  22  24
ATOM     24  O   UNL     1      36.424   5.772   9.721  0.00  0.00    +0.000 OA
ATOM     25  C   UNL     1      35.845   5.771   8.435  0.00  0.00    +0.000 C 
ENDBRANCH  22  24
ENDBRANCH  17  18
ENDBRANCH   4  17
BRANCH   5  26
ATOM     26  S   UNL     1      38.642   5.456  14.912  0.00  0.00    +0.000 S 
BRANCH  26  27
ATOM     27  C   UNL     1      39.499   5.770  16.404  0.00  0.00    +0.000 A 
ATOM     28  C   UNL     1      40.761   6.231  16.578  0.00  0.00    +0.000 A 
ATOM     29  C   UNL     1      41.368   6.448  17.794  0.00  0.00    +0.000 A 
ATOM     30  C   UNL     1      40.658   6.186  18.954  0.00  0.00    +0.000 A 
ATOM     31  C   UNL     1      39.370   5.716  18.823  0.00  0.00    +0.000 A 
ATOM     32  C   UNL     1      38.791   5.508  17.592  0.00  0.00    +0.000 A 
ENDBRANCH  26  27
ENDBRANCH   5  26
TORSDOF 8
ENDMDL
MODEL 6
REMARK VINA RESULT:      -7.6      2.555      7.292
REMARK  Name = 
REMARK  8 active torsions:
REMARK  status: ('A' for Active; 'I' for Inactive)
REMARK    1  A    between atoms: C_2  and  O_3
REMARK    2  A    between atoms: O_3  and  C_4
REMARK    3  A    between atoms: C_7  and  N_8
REMARK    4  A    between atoms: C_11  and  N_12
REMARK    5  A    between atoms: N_12  and  C_13
REMARK    6  A    between atoms: C_17  and  O_18
REMARK    7  A    between atoms: C_21  and  S_22
REMARK    8  A    between atoms: S_22  and  C_23
REMARK                            x       y       z     vdW  Elec       q    Type
REMARK                         _______ _______ _______ _____ _____    ______ ____
ROOT
ATOM      1  N   UNL     1      36.829   3.893  15.491  0.00  0.00    +0.000 N 
ATOM      2  C   UNL     1      36.450   4.819  14.501  0.00  0.00    +0.000 C 
ATOM      3  O   UNL     1      35.548   4.544  13.643  0.00  0.00    +0.000 OA
ATOM      4  C   UNL     1      37.226   6.024  14.653  0.00  0.00    +0.000 C 
ATOM      5  C   UNL     1      38.062   5.873  15.690  0.00  0.00    +0.000 C 
ATOM      6  C   UNL     1      37.851   4.559  16.246  0.00  0.00    +0.000 C 
ATOM      7  O   UNL     1      38.423   4.025  17.217  0.00  0.00    +0.000 OA
ENDROOT
BRANCH   1  11
ATOM      8  C   UNL     1      35.450  -0.039  16.218  0.00  0.00    +0.000 A 
ATOM      9  C   UNL     1      36.543   0.203  15.391  0.00  0.00    +0.000 A 
ATOM     10  C   UNL     1      36.970   1.488  15.172  0.00  0.00    +0.000 A 
ATOM     11  C   UNL     1      36.345   2.594  15.753  0.00  0.00    +0.000 A 
ATOM     12  C   UNL     1      35.270   2.340  16.565  0.00  0.00    +0.000 A 
ATOM     13  C   UNL     1      34.833   1.027  16.789  0.00  0.00    +0.000 A 
BRANCH   8  14
ATOM     14  O   UNL     1      35.017  -1.334  16.442  0.00  0.00    +0.000 OA
BRANCH  14  16
ATOM     15  C   UNL     1      35.150  -3.313  15.162  0.00  0.00    +0.000 C 
ATOM     16  C   UNL     1      35.776  -2.494  16.279  0.00  0.00    +0.000 C 
ENDBRANCH  14  16
ENDBRANCH   8  14
ENDBRANCH   1  11
BRANCH   4  17
ATOM     17  N   UNL     1      37.111   7.166  13.850  0.00  0.00    +0.000 NA
BRANCH  17  18
ATOM     18  C   UNL     1      36.099   8.125  13.905  0.00  0.00    +0.000 A 
ATOM     19  C   UNL     1      36.043   9.178  13.033  0.00  0.00    +0.000 A 
ATOM     20  C   UNL     1      35.002  10.074  13.159  0.00  0.00    +0.000 A 
ATOM     21  C   UNL     1      34.039   9.929  14.130  0.00  0.00    +0.000 A 
ATOM     22  C   UNL     1      34.073   8.869  15.026  0.00  0.00    +0.000 A 
ATOM     23  C   UNL     1      35.127   7.980  14.881  0.00  0.00    +0.000 A 
BRANCH  22  24
ATOM     24  O   UNL     1      33.112   8.712  16.005  0.00  0.00    +0.000 OA
ATOM     25  C   UNL     1      33.267   9.414  17.218  0.00  0.00    +0.000 C 
ENDBRANCH  22  24
ENDBRANCH  17  18
ENDBRANCH   4  17
BRANCH   5  26
ATOM     26  S   UNL     1      39.173   7.151  16.180  0.00  0.00    +0.000 S 
BRANCH  26  27
ATOM     27  C   UNL     1      39.934   6.923  17.738  0.00  0.00    +0.000 A 
ATOM     28  C   UNL     1      39.379   6.988  18.972  0.00  0.00    +0.000 A 
ATOM     29  C   UNL     1      40.051   6.800  20.158  0.00  0.00    +0.000 A 
ATOM     30  C   UNL     1      41.407   6.519  20.122  0.00  0.00    +0.000 A 
ATOM     31  C   UNL     1      42.013   6.442  18.888  0.00  0.00    +0.000 A 
ATOM     32  C   UNL     1      41.312   6.636  17.719  0.00  0.00    +0.000 A 
ENDBRANCH  26  27
ENDBRANCH   5  26
TORSDOF 8
ENDMDL
MODEL 7
REMARK VINA RESULT:      -7.5      4.755     10.331
REMARK  Name = 
REMARK  8 active torsions:
REMARK  status: ('A' for Active; 'I' for Inactive)
REMARK    1  A    between atoms: C_2  and  O_3
REMARK    2  A    between atoms: O_3  and  C_4
REMARK    3  A    between atoms: C_7  and  N_8
REMARK    4  A    between atoms: C_11  and  N_12
REMARK    5  A    between atoms: N_12  and  C_13
REMARK    6  A    between atoms: C_17  and  O_18
REMARK    7  A    between atoms: C_21  and  S_22
REMARK    8  A    between atoms: S_22  and  C_23
REMARK                            x       y       z     vdW  Elec       q    Type
REMARK                         _______ _______ _______ _____ _____    ______ ____
ROOT
ATOM      1  N   UNL     1      40.011  -2.061  14.439  0.00  0.00    +0.000 N 
ATOM      2  C   UNL     1      38.953  -1.272  13.949  0.00  0.00    +0.000 C 
ATOM      3  O   UNL     1      39.115  -0.476  12.966  0.00  0.00    +0.000 OA
ATOM      4  C   UNL     1      37.765  -1.536  14.722  0.00  0.00    +0.000 C 
ATOM      5  C   UNL     1      38.052  -2.447  15.662  0.00  0.00    +0.000 C 
ATOM      6  C   UNL     1      39.443  -2.806  15.525  0.00  0.00    +0.000 C 
ATOM      7  O   UNL     1      40.106  -3.618  16.201  0.00  0.00    +0.000 OA
ENDROOT
BRANCH   1  11
ATOM      8  C   UNL     1      44.044  -2.286  13.184  0.00  0.00    +0.000 A 
ATOM      9  C   UNL     1      43.631  -1.350  14.128  0.00  0.00    +0.000 A 
ATOM     10  C   UNL     1      42.317  -1.298  14.518  0.00  0.00    +0.000 A 
ATOM     11  C   UNL     1      41.348  -2.160  14.000  0.00  0.00    +0.000 A 
ATOM     12  C   UNL     1      41.769  -3.076  13.071  0.00  0.00    +0.000 A 
ATOM     13  C   UNL     1      43.112  -3.129  12.672  0.00  0.00    +0.000 A 
BRANCH   8  14
ATOM     14  O   UNL     1      45.369  -2.340  12.789  0.00  0.00    +0.000 OA
BRANCH  14  16
ATOM     15  C   UNL     1      46.520  -4.027  13.972  0.00  0.00    +0.000 C 
ATOM     16  C   UNL     1      46.467  -2.548  13.625  0.00  0.00    +0.000 C 
ENDBRANCH  14  16
ENDBRANCH   8  14
ENDBRANCH   1  11
BRANCH   4  17
ATOM     17  N   UNL     1      36.514  -0.939  14.511  0.00  0.00    +0.000 NA
BRANCH  17  18
ATOM     18  C   UNL     1      36.060   0.261  15.059  0.00  0.00    +0.000 A 
ATOM     19  C   UNL     1      35.390   0.311  16.251  0.00  0.00    +0.000 A 
ATOM     20  C   UNL     1      34.984   1.543  16.719  0.00  0.00    +0.000 A 
ATOM     21  C   UNL     1      35.236   2.700  16.018  0.00  0.00    +0.000 A 
ATOM     22  C   UNL     1      35.914   2.675  14.808  0.00  0.00    +0.000 A 
ATOM     23  C   UNL     1      36.314   1.427  14.356  0.00  0.00    +0.000 A 
BRANCH  22  24
ATOM     24  O   UNL     1      36.173   3.830  14.094  0.00  0.00    +0.000 OA
ATOM     25  C   UNL     1      35.228   4.875  14.141  0.00  0.00    +0.000 C 
ENDBRANCH  22  24
ENDBRANCH  17  18
ENDBRANCH   4  17
BRANCH   5  26
ATOM     26  S   UNL     1      36.836  -3.019  16.802  0.00  0.00    +0.000 S 
BRANCH  26  27
ATOM     27  C   UNL     1      35.658  -4.132  16.142  0.00  0.00    +0.000 A 
ATOM     28  C   UNL     1      35.699  -5.485  16.099  0.00  0.00    +0.000 A 
ATOM     29  C   UNL     1      34.728  -6.293  15.553  0.00  0.00    +0.000 A 
ATOM     30  C   UNL     1      33.603  -5.707  14.996  0.00  0.00    +0.000 A 
ATOM     31  C   UNL     1      33.520  -4.332  15.019  0.00  0.00    +0.000 A 
ATOM     32  C   UNL     1      34.509  -3.551  15.572  0.00  0.00    +0.000 A 
ENDBRANCH  26  27
ENDBRANCH   5  26
TORSDOF 8
ENDMDL
MODEL 8
REMARK VINA RESULT:      -7.3     23.942     28.163
REMARK  Name = 
REMARK  8 active torsions:
REMARK  status: ('A' for Active; 'I' for Inactive)
REMARK    1  A    between atoms: C_2  and  O_3
REMARK    2  A    between atoms: O_3  and  C_4
REMARK    3  A    between atoms: C_7  and  N_8
REMARK    4  A    between atoms: C_11  and  N_12
REMARK    5  A    between atoms: N_12  and  C_13
REMARK    6  A    between atoms: C_17  and  O_18
REMARK    7  A    between atoms: C_21  and  S_22
REMARK    8  A    between atoms: S_22  and  C_23
REMARK                            x       y       z     vdW  Elec       q    Type
REMARK                         _______ _______ _______ _____ _____    ______ ____
ROOT
ATOM      1  N   UNL     1      26.621  14.026  39.975  0.00  0.00    +0.000 N 
ATOM      2  C   UNL     1      27.776  14.748  39.617  0.00  0.00    +0.000 C 
ATOM      3  O   UNL     1      28.913  14.481  40.129  0.00  0.00    +0.000 OA
ATOM      4  C   UNL     1      27.427  15.753  38.644  0.00  0.00    +0.000 C 
ATOM      5  C   UNL     1      26.113  15.677  38.394  0.00  0.00    +0.000 C 
ATOM      6  C   UNL     1      25.566  14.614  39.202  0.00  0.00    +0.000 C 
ATOM      7  O   UNL     1      24.385  14.217  39.267  0.00  0.00    +0.000 OA
ENDROOT
BRANCH   1  11
ATOM      8  C   UNL     1      26.099  10.848  42.717  0.00  0.00    +0.000 A 
ATOM      9  C   UNL     1      25.533  12.099  42.943  0.00  0.00    +0.000 A 
ATOM     10  C   UNL     1      25.718  13.114  42.038  0.00  0.00    +0.000 A 
ATOM     11  C   UNL     1      26.466  12.947  40.870  0.00  0.00    +0.000 A 
ATOM     12  C   UNL     1      27.018  11.710  40.661  0.00  0.00    +0.000 A 
ATOM     13  C   UNL     1      26.829  10.673  41.586  0.00  0.00    +0.000 A 
BRANCH   8  14
ATOM     14  O   UNL     1      25.915   9.824  43.629  0.00  0.00    +0.000 OA
BRANCH  14  16
ATOM     15  C   UNL     1      24.052   8.396  43.387  0.00  0.00    +0.000 C 
ATOM     16  C   UNL     1      24.709   9.472  44.236  0.00  0.00    +0.000 C 
ENDBRANCH  14  16
ENDBRANCH   8  14
ENDBRANCH   1  11
BRANCH   4  17
ATOM     17  N   UNL     1      28.326  16.651  38.052  0.00  0.00    +0.000 NA
BRANCH  17  18
ATOM     18  C   UNL     1      28.929  16.524  36.800  0.00  0.00    +0.000 A 
ATOM     19  C   UNL     1      28.874  17.516  35.860  0.00  0.00    +0.000 A 
ATOM     20  C   UNL     1      29.504  17.305  34.652  0.00  0.00    +0.000 A 
ATOM     21  C   UNL     1      30.174  16.133  34.383  0.00  0.00    +0.000 A 
ATOM     22  C   UNL     1      30.244  15.112  35.320  0.00  0.00    +0.000 A 
ATOM     23  C   UNL     1      29.605  15.346  36.528  0.00  0.00    +0.000 A 
BRANCH  22  24
ATOM     24  O   UNL     1      30.914  13.931  35.063  0.00  0.00    +0.000 OA
ATOM     25  C   UNL     1      31.986  13.570  35.904  0.00  0.00    +0.000 C 
ENDBRANCH  22  24
ENDBRANCH  17  18
ENDBRANCH   4  17
BRANCH   5  26
ATOM     26  S   UNL     1      25.323  16.757  37.247  0.00  0.00    +0.000 S 
BRANCH  26  27
ATOM     27  C   UNL     1      25.440  16.278  35.568  0.00  0.00    +0.000 A 
ATOM     28  C   UNL     1      25.119  16.985  34.459  0.00  0.00    +0.000 A 
ATOM     29  C   UNL     1      25.236  16.532  33.165  0.00  0.00    +0.000 A 
ATOM     30  C   UNL     1      25.721  15.253  32.944  0.00  0.00    +0.000 A 
ATOM     31  C   UNL     1      26.061  14.499  34.045  0.00  0.00    +0.000 A 
ATOM     32  C   UNL     1      25.931  14.981  35.327  0.00  0.00    +0.000 A 
ENDBRANCH  26  27
ENDBRANCH   5  26
TORSDOF 8
ENDMDL
MODEL 9
REMARK VINA RESULT:      -7.2      2.219      7.898
REMARK  Name = 
REMARK  8 active torsions:
REMARK  status: ('A' for Active; 'I' for Inactive)
REMARK    1  A    between atoms: C_2  and  O_3
REMARK    2  A    between atoms: O_3  and  C_4
REMARK    3  A    between atoms: C_7  and  N_8
REMARK    4  A    between atoms: C_11  and  N_12
REMARK    5  A    between atoms: N_12  and  C_13
REMARK    6  A    between atoms: C_17  and  O_18
REMARK    7  A    between atoms: C_21  and  S_22
REMARK    8  A    between atoms: S_22  and  C_23
REMARK                            x       y       z     vdW  Elec       q    Type
REMARK                         _______ _______ _______ _____ _____    ______ ____
ROOT
ATOM      1  N   UNL     1      37.066   3.103  15.834  0.00  0.00    +0.000 N 
ATOM      2  C   UNL     1      37.585   3.947  16.834  0.00  0.00    +0.000 C 
ATOM      3  O   UNL     1      37.837   3.514  18.007  0.00  0.00    +0.000 OA
ATOM      4  C   UNL     1      37.751   5.275  16.297  0.00  0.00    +0.000 C 
ATOM      5  C   UNL     1      37.355   5.277  15.017  0.00  0.00    +0.000 C 
ATOM      6  C   UNL     1      36.920   3.943  14.682  0.00  0.00    +0.000 C 
ATOM      7  O   UNL     1      36.478   3.520  13.594  0.00  0.00    +0.000 OA
ENDROOT
BRANCH   1  11
ATOM      8  C   UNL     1      36.042  -0.998  16.013  0.00  0.00    +0.000 A 
ATOM      9  C   UNL     1      35.190  -0.016  16.511  0.00  0.00    +0.000 A 
ATOM     10  C   UNL     1      35.546   1.307  16.441  0.00  0.00    +0.000 A 
ATOM     11  C   UNL     1      36.754   1.728  15.880  0.00  0.00    +0.000 A 
ATOM     12  C   UNL     1      37.583   0.750  15.394  0.00  0.00    +0.000 A 
ATOM     13  C   UNL     1      37.219  -0.602  15.466  0.00  0.00    +0.000 A 
BRANCH   8  14
ATOM     14  O   UNL     1      35.685  -2.333  16.083  0.00  0.00    +0.000 OA
BRANCH  14  16
ATOM     15  C   UNL     1      35.726  -4.613  15.476  0.00  0.00    +0.000 C 
ATOM     16  C   UNL     1      35.494  -3.189  14.998  0.00  0.00    +0.000 C 
ENDBRANCH  14  16
ENDBRANCH   8  14
ENDBRANCH   1  11
BRANCH   4  17
ATOM     17  N   UNL     1      38.256   6.375  17.004  0.00  0.00    +0.000 NA
BRANCH  17  18
ATOM     18  C   UNL     1      39.368   6.386  17.846  0.00  0.00    +0.000 A 
ATOM     19  C   UNL     1      39.251   6.391  19.208  0.00  0.00    +0.000 A 
ATOM     20  C   UNL     1      40.407   6.395  19.962  0.00  0.00    +0.000 A 
ATOM     21  C   UNL     1      41.651   6.396  19.374  0.00  0.00    +0.000 A 
ATOM     22  C   UNL     1      41.795   6.391  17.994  0.00  0.00    +0.000 A 
ATOM     23  C   UNL     1      40.621   6.385  17.256  0.00  0.00    +0.000 A 
BRANCH  22  24
ATOM     24  O   UNL     1      43.038   6.392  17.391  0.00  0.00    +0.000 OA
ATOM     25  C   UNL     1      43.127   6.768  16.035  0.00  0.00    +0.000 C 
ENDBRANCH  22  24
ENDBRANCH  17  18
ENDBRANCH   4  17
BRANCH   5  26
ATOM     26  S   UNL     1      37.417   6.736  14.029  0.00  0.00    +0.000 S 
BRANCH  26  27
ATOM     27  C   UNL     1      36.031   6.997  12.995  0.00  0.00    +0.000 A 
ATOM     28  C   UNL     1      36.000   7.376  11.695  0.00  0.00    +0.000 A 
ATOM     29  C   UNL     1      34.859   7.565  10.948  0.00  0.00    +0.000 A 
ATOM     30  C   UNL     1      33.626   7.360  11.544  0.00  0.00    +0.000 A 
ATOM     31  C   UNL     1      33.610   6.973  12.866  0.00  0.00    +0.000 A 
ATOM     32  C   UNL     1      34.769   6.792  13.586  0.00  0.00    +0.000 A 
ENDBRANCH  26  27
ENDBRANCH   5  26
TORSDOF 8
ENDMDL
MODEL 10
REMARK VINA RESULT:      -7.0      5.182      9.578
REMARK  Name = 
REMARK  8 active torsions:
REMARK  status: ('A' for Active; 'I' for Inactive)
REMARK    1  A    between atoms: C_2  and  O_3
REMARK    2  A    between atoms: O_3  and  C_4
REMARK    3  A    between atoms: C_7  and  N_8
REMARK    4  A    between atoms: C_11  and  N_12
REMARK    5  A    between atoms: N_12  and  C_13
REMARK    6  A    between atoms: C_17  and  O_18
REMARK    7  A    between atoms: C_21  and  S_22
REMARK    8  A    between atoms: S_22  and  C_23
REMARK                            x       y       z     vdW  Elec       q    Type
REMARK                         _______ _______ _______ _____ _____    ______ ____
ROOT
ATOM      1  N   UNL     1      40.971  -1.528  14.059  0.00  0.00    +0.000 N 
ATOM      2  C   UNL     1      40.133  -0.576  13.448  0.00  0.00    +0.000 C 
ATOM      3  O   UNL     1      40.599   0.314  12.663  0.00  0.00    +0.000 OA
ATOM      4  C   UNL     1      38.772  -0.804  13.864  0.00  0.00    +0.000 C 
ATOM      5  C   UNL     1      38.743  -1.850  14.701  0.00  0.00    +0.000 C 
ATOM      6  C   UNL     1      40.093  -2.336  14.854  0.00  0.00    +0.000 C 
ATOM      7  O   UNL     1      40.501  -3.293  15.543  0.00  0.00    +0.000 OA
ENDROOT
BRANCH   1  11
ATOM      8  C   UNL     1      45.165  -2.016  13.790  0.00  0.00    +0.000 A 
ATOM      9  C   UNL     1      44.601  -1.041  14.607  0.00  0.00    +0.000 A 
ATOM     10  C   UNL     1      43.237  -0.904  14.676  0.00  0.00    +0.000 A 
ATOM     11  C   UNL     1      42.365  -1.715  13.947  0.00  0.00    +0.000 A 
ATOM     12  C   UNL     1      42.935  -2.671  13.147  0.00  0.00    +0.000 A 
ATOM     13  C   UNL     1      44.328  -2.812  13.076  0.00  0.00    +0.000 A 
BRANCH   8  14
ATOM     14  O   UNL     1      46.539  -2.157  13.718  0.00  0.00    +0.000 OA
BRANCH  14  16
ATOM     15  C   UNL     1      48.390  -3.417  12.973  0.00  0.00    +0.000 C 
ATOM     16  C   UNL     1      47.260  -3.321  13.985  0.00  0.00    +0.000 C 
ENDBRANCH  14  16
ENDBRANCH   8  14
ENDBRANCH   1  11
BRANCH   4  17
ATOM     17  N   UNL     1      37.663  -0.055  13.446  0.00  0.00    +0.000 NA
BRANCH  17  18
ATOM     18  C   UNL     1      37.062   0.999  14.135  0.00  0.00    +0.000 A 
ATOM     19  C   UNL     1      35.744   1.323  13.965  0.00  0.00    +0.000 A 
ATOM     20  C   UNL     1      35.233   2.377  14.693  0.00  0.00    +0.000 A 
ATOM     21  C   UNL     1      36.015   3.095  15.568  0.00  0.00    +0.000 A 
ATOM     22  C   UNL     1      37.355   2.786  15.758  0.00  0.00    +0.000 A 
ATOM     23  C   UNL     1      37.847   1.722  15.017  0.00  0.00    +0.000 A 
BRANCH  22  24
ATOM     24  O   UNL     1      38.150   3.499  16.634  0.00  0.00    +0.000 OA
ATOM     25  C   UNL     1      38.221   4.900  16.489  0.00  0.00    +0.000 C 
ENDBRANCH  22  24
ENDBRANCH  17  18
ENDBRANCH   4  17
BRANCH   5  26
ATOM     26  S   UNL     1      37.238  -2.426  15.416  0.00  0.00    +0.000 S 
BRANCH  26  27
ATOM     27  C   UNL     1      36.681  -1.527  16.809  0.00  0.00    +0.000 A 
ATOM     28  C   UNL     1      35.607  -0.710  16.919  0.00  0.00    +0.000 A 
ATOM     29  C   UNL     1      35.237  -0.031  18.058  0.00  0.00    +0.000 A 
ATOM     30  C   UNL     1      36.004  -0.174  19.203  0.00  0.00    +0.000 A 
ATOM     31  C   UNL     1      37.106  -0.998  19.136  0.00  0.00    +0.000 A 
ATOM     32  C   UNL     1      37.450  -1.663  17.981  0.00  0.00    +0.000 A 
ENDBRANCH  26  27
ENDBRANCH   5  26
TORSDOF 8
ENDMDL
