MODEL 1
REMARK VINA RESULT:      -7.4      0.000      0.000
REMARK  Name = 
REMARK  5 active torsions:
REMARK  status: ('A' for Active; 'I' for Inactive)
REMARK    1  A    between atoms: N_2  and  C_4
REMARK    2  A    between atoms: C_7  and  N_8
REMARK    3  A    between atoms: C_15  and  N_16
REMARK    4  A    between atoms: N_16  and  C_17
REMARK    5  A    between atoms: C_17  and  C_18
REMARK                            x       y       z     vdW  Elec       q    Type
REMARK                         _______ _______ _______ _____ _____    ______ ____
ROOT
ATOM      1  C   UNL     1      14.248  11.572  37.027  0.00  0.00    +0.000 A 
ATOM      2  C   UNL     1      14.656  11.094  38.277  0.00  0.00    +0.000 A 
ATOM      3  C   UNL     1      15.951  10.703  38.526  0.00  0.00    +0.000 A 
ATOM      4  C   UNL     1      16.863  10.794  37.490  0.00  0.00    +0.000 A 
ATOM      5  C   UNL     1      16.455  11.266  36.262  0.00  0.00    +0.000 A 
ATOM      6  C   UNL     1      15.162  11.661  36.003  0.00  0.00    +0.000 A 
ENDROOT
BRANCH   4   7
ATOM      7  N   UNL     1      18.222  10.415  37.648  0.00  0.00    +0.000 N 
ATOM      8  C   UNL     1      18.934  10.968  38.778  0.00  0.00    +0.000 C 
ATOM      9  C   UNL     1      20.415  11.043  38.564  0.00  0.00    +0.000 C 
ATOM     10  C   UNL     1      20.955   9.882  37.767  0.00  0.00    +0.000 C 
ATOM     11  C   UNL     1      20.259   9.803  36.421  0.00  0.00    +0.000 C 
ATOM     12  C   UNL     1      18.805   9.519  36.695  0.00  0.00    +0.000 C 
ENDBRANCH   4   7
BRANCH   1  14
ATOM     13  O   UNL     1      12.019  11.106  36.834  0.00  0.00    +0.000 OA
ATOM     14  N   UNL     1      12.912  11.977  36.768  0.00  0.00    +0.000 N 
ATOM     15  O   UNL     1      12.547  13.242  36.456  0.00  0.00    +0.000 OA
ENDBRANCH   1  14
BRANCH   6  16
ATOM     16  N   UNL     1      14.729  12.147  34.743  0.00  0.00    +0.000 NA
BRANCH  16  17
ATOM     17  C   UNL     1      15.276  11.500  33.567  0.00  0.00    +0.000 C 
BRANCH  17  18
ATOM     18  C   UNL     1      15.154  12.334  32.358  0.00  0.00    +0.000 A 
ATOM     19  C   UNL     1      14.130  13.241  32.174  0.00  0.00    +0.000 A 
ATOM     20  C   UNL     1      14.327  13.840  30.947  0.00  0.00    +0.000 A 
ATOM     21  C   UNL     1      15.468  13.269  30.434  0.00  0.00    +0.000 A 
ATOM     22  O   UNL     1      15.916  12.396  31.294  0.00  0.00    +0.000 OA
ENDBRANCH  17  18
ENDBRANCH  16  17
ENDBRANCH   6  16
TORSDOF 5
ENDMDL
MODEL 2
REMARK VINA RESULT:      -6.3     19.973     22.841
REMARK  Name = 
REMARK  5 active torsions:
REMARK  status: ('A' for Active; 'I' for Inactive)
REMARK    1  A    between atoms: N_2  and  C_4
REMARK    2  A    between atoms: C_7  and  N_8
REMARK    3  A    between atoms: C_15  and  N_16
REMARK    4  A    between atoms: N_16  and  C_17
REMARK    5  A    between atoms: C_17  and  C_18
REMARK                            x       y       z     vdW  Elec       q    Type
REMARK                         _______ _______ _______ _____ _____    ______ ____
ROOT
ATOM      1  C   UNL     1      33.992  -1.874  35.596  0.00  0.00    +0.000 A 
ATOM      2  C   UNL     1      34.628  -3.086  35.883  0.00  0.00    +0.000 A 
ATOM      3  C   UNL     1      34.704  -4.111  34.969  0.00  0.00    +0.000 A 
ATOM      4  C   UNL     1      34.125  -3.912  33.728  0.00  0.00    +0.000 A 
ATOM      5  C   UNL     1      33.500  -2.716  33.451  0.00  0.00    +0.000 A 
ATOM      6  C   UNL     1      33.419  -1.684  34.359  0.00  0.00    +0.000 A 
ENDROOT
BRANCH   4   7
ATOM      7  N   UNL     1      34.150  -4.908  32.717  0.00  0.00    +0.000 N 
ATOM      8  C   UNL     1      35.206  -5.893  32.788  0.00  0.00    +0.000 C 
ATOM      9  C   UNL     1      35.547  -6.491  31.457  0.00  0.00    +0.000 C 
ATOM     10  C   UNL     1      34.343  -6.670  30.567  0.00  0.00    +0.000 C 
ATOM     11  C   UNL     1      33.648  -5.338  30.352  0.00  0.00    +0.000 C 
ATOM     12  C   UNL     1      33.144  -4.884  31.698  0.00  0.00    +0.000 C 
ENDBRANCH   4   7
BRANCH   1  14
ATOM     13  O   UNL     1      34.917  -0.086  36.677  0.00  0.00    +0.000 OA
ATOM     14  N   UNL     1      33.913  -0.815  36.539  0.00  0.00    +0.000 N 
ATOM     15  O   UNL     1      32.822  -0.549  37.294  0.00  0.00    +0.000 OA
ENDBRANCH   1  14
BRANCH   6  16
ATOM     16  N   UNL     1      32.780  -0.449  34.087  0.00  0.00    +0.000 NA
BRANCH  16  17
ATOM     17  C   UNL     1      33.453   0.449  33.168  0.00  0.00    +0.000 C 
BRANCH  17  18
ATOM     18  C   UNL     1      33.601   1.808  33.718  0.00  0.00    +0.000 A 
ATOM     19  C   UNL     1      33.700   2.932  32.922  0.00  0.00    +0.000 A 
ATOM     20  C   UNL     1      33.826   4.021  33.760  0.00  0.00    +0.000 A 
ATOM     21  C   UNL     1      33.797   3.510  35.037  0.00  0.00    +0.000 A 
ATOM     22  O   UNL     1      33.664   2.214  34.962  0.00  0.00    +0.000 OA
ENDBRANCH  17  18
ENDBRANCH  16  17
ENDBRANCH   6  16
TORSDOF 5
ENDMDL
MODEL 3
REMARK VINA RESULT:      -6.3     17.209     19.775
REMARK  Name = 
REMARK  5 active torsions:
REMARK  status: ('A' for Active; 'I' for Inactive)
REMARK    1  A    between atoms: N_2  and  C_4
REMARK    2  A    between atoms: C_7  and  N_8
REMARK    3  A    between atoms: C_15  and  N_16
REMARK    4  A    between atoms: N_16  and  C_17
REMARK    5  A    between atoms: C_17  and  C_18
REMARK                            x       y       z     vdW  Elec       q    Type
REMARK                         _______ _______ _______ _____ _____    ______ ____
ROOT
ATOM      1  C   UNL     1      26.563  23.234  28.849  0.00  0.00    +0.000 A 
ATOM      2  C   UNL     1      25.737  23.745  27.842  0.00  0.00    +0.000 A 
ATOM      3  C   UNL     1      26.153  23.852  26.536  0.00  0.00    +0.000 A 
ATOM      4  C   UNL     1      27.436  23.434  26.231  0.00  0.00    +0.000 A 
ATOM      5  C   UNL     1      28.245  22.931  27.227  0.00  0.00    +0.000 A 
ATOM      6  C   UNL     1      27.837  22.819  28.538  0.00  0.00    +0.000 A 
ENDROOT
BRANCH   4   7
ATOM      7  N   UNL     1      27.958  23.504  24.913  0.00  0.00    +0.000 N 
ATOM      8  C   UNL     1      29.397  23.551  24.775  0.00  0.00    +0.000 C 
ATOM      9  C   UNL     1      29.847  24.215  23.509  0.00  0.00    +0.000 C 
ATOM     10  C   UNL     1      28.939  23.932  22.339  0.00  0.00    +0.000 C 
ATOM     11  C   UNL     1      27.522  24.374  22.658  0.00  0.00    +0.000 C 
ATOM     12  C   UNL     1      27.046  23.525  23.808  0.00  0.00    +0.000 C 
ENDBRANCH   4   7
BRANCH   1  14
ATOM     13  O   UNL     1      25.987  24.179  30.849  0.00  0.00    +0.000 OA
ATOM     14  N   UNL     1      26.134  23.123  30.199  0.00  0.00    +0.000 N 
ATOM     15  O   UNL     1      25.877  21.949  30.821  0.00  0.00    +0.000 OA
ENDBRANCH   1  14
BRANCH   6  16
ATOM     16  N   UNL     1      28.658  22.304  29.572  0.00  0.00    +0.000 NA
BRANCH  16  17
ATOM     17  C   UNL     1      29.762  23.137  30.008  0.00  0.00    +0.000 C 
BRANCH  17  18
ATOM     18  C   UNL     1      31.026  22.387  30.109  0.00  0.00    +0.000 A 
ATOM     19  C   UNL     1      31.843  22.146  29.022  0.00  0.00    +0.000 A 
ATOM     20  C   UNL     1      32.929  21.424  29.476  0.00  0.00    +0.000 A 
ATOM     21  C   UNL     1      32.725  21.258  30.825  0.00  0.00    +0.000 A 
ATOM     22  O   UNL     1      31.602  21.837  31.150  0.00  0.00    +0.000 OA
ENDBRANCH  17  18
ENDBRANCH  16  17
ENDBRANCH   6  16
TORSDOF 5
ENDMDL
MODEL 4
REMARK VINA RESULT:      -6.1     18.033     20.520
REMARK  Name = 
REMARK  5 active torsions:
REMARK  status: ('A' for Active; 'I' for Inactive)
REMARK    1  A    between atoms: N_2  and  C_4
REMARK    2  A    between atoms: C_7  and  N_8
REMARK    3  A    between atoms: C_15  and  N_16
REMARK    4  A    between atoms: N_16  and  C_17
REMARK    5  A    between atoms: C_17  and  C_18
REMARK                            x       y       z     vdW  Elec       q    Type
REMARK                         _______ _______ _______ _____ _____    ______ ____
ROOT
ATOM      1  C   UNL     1      26.500  23.728  23.566  0.00  0.00    +0.000 A 
ATOM      2  C   UNL     1      25.452  24.021  24.444  0.00  0.00    +0.000 A 
ATOM      3  C   UNL     1      25.562  23.846  25.804  0.00  0.00    +0.000 A 
ATOM      4  C   UNL     1      26.761  23.362  26.297  0.00  0.00    +0.000 A 
ATOM      5  C   UNL     1      27.790  23.075  25.427  0.00  0.00    +0.000 A 
ATOM      6  C   UNL     1      27.689  23.248  24.064  0.00  0.00    +0.000 A 
ENDROOT
BRANCH   4   7
ATOM      7  N   UNL     1      26.972  23.147  27.684  0.00  0.00    +0.000 N 
ATOM      8  C   UNL     1      25.992  23.698  28.594  0.00  0.00    +0.000 C 
ATOM      9  C   UNL     1      26.544  23.977  29.958  0.00  0.00    +0.000 C 
ATOM     10  C   UNL     1      27.564  22.958  30.401  0.00  0.00    +0.000 C 
ATOM     11  C   UNL     1      28.707  22.894  29.403  0.00  0.00    +0.000 C 
ATOM     12  C   UNL     1      28.126  22.408  28.101  0.00  0.00    +0.000 C 
ENDBRANCH   4   7
BRANCH   1  14
ATOM     13  O   UNL     1      25.734  23.061  21.519  0.00  0.00    +0.000 OA
ATOM     14  N   UNL     1      26.388  23.908  22.162  0.00  0.00    +0.000 N 
ATOM     15  O   UNL     1      26.943  24.937  21.480  0.00  0.00    +0.000 OA
ENDBRANCH   1  14
BRANCH   6  16
ATOM     16  N   UNL     1      28.740  22.957  23.159  0.00  0.00    +0.000 NA
BRANCH  16  17
ATOM     17  C   UNL     1      29.637  24.045  22.823  0.00  0.00    +0.000 C 
BRANCH  17  18
ATOM     18  C   UNL     1      30.727  24.198  23.803  0.00  0.00    +0.000 A 
ATOM     19  C   UNL     1      30.920  25.352  24.535  0.00  0.00    +0.000 A 
ATOM     20  C   UNL     1      32.019  25.147  25.345  0.00  0.00    +0.000 A 
ATOM     21  C   UNL     1      32.448  23.870  25.070  0.00  0.00    +0.000 A 
ATOM     22  O   UNL     1      31.663  23.355  24.164  0.00  0.00    +0.000 OA
ENDBRANCH  17  18
ENDBRANCH  16  17
ENDBRANCH   6  16
TORSDOF 5
ENDMDL
MODEL 5
REMARK VINA RESULT:      -6.1     17.132     18.993
REMARK  Name = 
REMARK  5 active torsions:
REMARK  status: ('A' for Active; 'I' for Inactive)
REMARK    1  A    between atoms: N_2  and  C_4
REMARK    2  A    between atoms: C_7  and  N_8
REMARK    3  A    between atoms: C_15  and  N_16
REMARK    4  A    between atoms: N_16  and  C_17
REMARK    5  A    between atoms: C_17  and  C_18
REMARK                            x       y       z     vdW  Elec       q    Type
REMARK                         _______ _______ _______ _____ _____    ______ ____
ROOT
ATOM      1  C   UNL     1      26.625  23.154  28.899  0.00  0.00    +0.000 A 
ATOM      2  C   UNL     1      27.672  22.334  28.464  0.00  0.00    +0.000 A 
ATOM      3  C   UNL     1      28.121  22.344  27.164  0.00  0.00    +0.000 A 
ATOM      4  C   UNL     1      27.501  23.202  26.274  0.00  0.00    +0.000 A 
ATOM      5  C   UNL     1      26.471  24.008  26.708  0.00  0.00    +0.000 A 
ATOM      6  C   UNL     1      26.015  24.006  28.008  0.00  0.00    +0.000 A 
ENDROOT
BRANCH   4   7
ATOM      7  N   UNL     1      27.892  23.285  24.912  0.00  0.00    +0.000 N 
ATOM      8  C   UNL     1      29.310  23.259  24.630  0.00  0.00    +0.000 C 
ATOM      9  C   UNL     1      29.668  23.937  23.342  0.00  0.00    +0.000 C 
ATOM     10  C   UNL     1      28.633  23.738  22.264  0.00  0.00    +0.000 C 
ATOM     11  C   UNL     1      27.282  24.245  22.735  0.00  0.00    +0.000 C 
ATOM     12  C   UNL     1      26.877  23.388  23.907  0.00  0.00    +0.000 C 
ENDBRANCH   4   7
BRANCH   1  14
ATOM     13  O   UNL     1      25.925  22.038  30.766  0.00  0.00    +0.000 OA
ATOM     14  N   UNL     1      26.161  23.146  30.241  0.00  0.00    +0.000 N 
ATOM     15  O   UNL     1      25.960  24.260  30.983  0.00  0.00    +0.000 OA
ENDBRANCH   1  14
BRANCH   6  16
ATOM     16  N   UNL     1      24.957  24.829  28.467  0.00  0.00    +0.000 NA
BRANCH  16  17
ATOM     17  C   UNL     1      24.809  26.123  27.829  0.00  0.00    +0.000 C 
BRANCH  17  18
ATOM     18  C   UNL     1      23.485  26.293  27.203  0.00  0.00    +0.000 A 
ATOM     19  C   UNL     1      23.318  26.504  25.850  0.00  0.00    +0.000 A 
ATOM     20  C   UNL     1      21.963  26.617  25.615  0.00  0.00    +0.000 A 
ATOM     21  C   UNL     1      21.361  26.469  26.842  0.00  0.00    +0.000 A 
ATOM     22  O   UNL     1      22.289  26.281  27.740  0.00  0.00    +0.000 OA
ENDBRANCH  17  18
ENDBRANCH  16  17
ENDBRANCH   6  16
TORSDOF 5
ENDMDL
MODEL 6
REMARK VINA RESULT:      -6.0     19.550     21.335
REMARK  Name = 
REMARK  5 active torsions:
REMARK  status: ('A' for Active; 'I' for Inactive)
REMARK    1  A    between atoms: N_2  and  C_4
REMARK    2  A    between atoms: C_7  and  N_8
REMARK    3  A    between atoms: C_15  and  N_16
REMARK    4  A    between atoms: N_16  and  C_17
REMARK    5  A    between atoms: C_17  and  C_18
REMARK                            x       y       z     vdW  Elec       q    Type
REMARK                         _______ _______ _______ _____ _____    ______ ____
ROOT
ATOM      1  C   UNL     1      33.928   3.866  34.577  0.00  0.00    +0.000 A 
ATOM      2  C   UNL     1      33.686   3.163  33.392  0.00  0.00    +0.000 A 
ATOM      3  C   UNL     1      33.524   1.797  33.369  0.00  0.00    +0.000 A 
ATOM      4  C   UNL     1      33.607   1.118  34.571  0.00  0.00    +0.000 A 
ATOM      5  C   UNL     1      33.846   1.816  35.735  0.00  0.00    +0.000 A 
ATOM      6  C   UNL     1      34.008   3.183  35.768  0.00  0.00    +0.000 A 
ENDROOT
BRANCH   4   7
ATOM      7  N   UNL     1      33.454  -0.291  34.651  0.00  0.00    +0.000 N 
ATOM      8  C   UNL     1      34.194  -1.090  33.699  0.00  0.00    +0.000 C 
ATOM      9  C   UNL     1      33.562  -2.421  33.427  0.00  0.00    +0.000 C 
ATOM     10  C   UNL     1      32.913  -3.025  34.646  0.00  0.00    +0.000 C 
ATOM     11  C   UNL     1      31.864  -2.080  35.204  0.00  0.00    +0.000 C 
ATOM     12  C   UNL     1      32.590  -0.837  35.654  0.00  0.00    +0.000 C 
ENDBRANCH   4   7
BRANCH   1  14
ATOM     13  O   UNL     1      35.260   5.723  34.551  0.00  0.00    +0.000 OA
ATOM     14  N   UNL     1      34.095   5.276  34.602  0.00  0.00    +0.000 N 
ATOM     15  O   UNL     1      33.075   6.162  34.677  0.00  0.00    +0.000 OA
ENDBRANCH   1  14
BRANCH   6  16
ATOM     16  N   UNL     1      34.254   3.913  36.957  0.00  0.00    +0.000 NA
BRANCH  16  17
ATOM     17  C   UNL     1      35.465   3.590  37.687  0.00  0.00    +0.000 C 
BRANCH  17  18
ATOM     18  C   UNL     1      36.455   4.681  37.644  0.00  0.00    +0.000 A 
ATOM     19  C   UNL     1      37.808   4.458  37.489  0.00  0.00    +0.000 A 
ATOM     20  C   UNL     1      38.431   5.690  37.493  0.00  0.00    +0.000 A 
ATOM     21  C   UNL     1      37.424   6.613  37.650  0.00  0.00    +0.000 A 
ATOM     22  O   UNL     1      36.288   5.977  37.734  0.00  0.00    +0.000 OA
ENDBRANCH  17  18
ENDBRANCH  16  17
ENDBRANCH   6  16
TORSDOF 5
ENDMDL
MODEL 7
REMARK VINA RESULT:      -5.9     21.302     22.971
REMARK  Name = 
REMARK  5 active torsions:
REMARK  status: ('A' for Active; 'I' for Inactive)
REMARK    1  A    between atoms: N_2  and  C_4
REMARK    2  A    between atoms: C_7  and  N_8
REMARK    3  A    between atoms: C_15  and  N_16
REMARK    4  A    between atoms: N_16  and  C_17
REMARK    5  A    between atoms: C_17  and  C_18
REMARK                            x       y       z     vdW  Elec       q    Type
REMARK                         _______ _______ _______ _____ _____    ______ ____
ROOT
ATOM      1  C   UNL     1      19.008  -7.165  25.959  0.00  0.00    +0.000 A 
ATOM      2  C   UNL     1      19.880  -6.081  25.810  0.00  0.00    +0.000 A 
ATOM      3  C   UNL     1      21.127  -6.214  25.246  0.00  0.00    +0.000 A 
ATOM      4  C   UNL     1      21.511  -7.472  24.819  0.00  0.00    +0.000 A 
ATOM      5  C   UNL     1      20.649  -8.536  24.968  0.00  0.00    +0.000 A 
ATOM      6  C   UNL     1      19.397  -8.413  25.531  0.00  0.00    +0.000 A 
ENDROOT
BRANCH   4   7
ATOM      7  N   UNL     1      22.778  -7.712  24.225  0.00  0.00    +0.000 N 
ATOM      8  C   UNL     1      23.278  -9.068  24.263  0.00  0.00    +0.000 C 
ATOM      9  C   UNL     1      24.773  -9.149  24.201  0.00  0.00    +0.000 C 
ATOM     10  C   UNL     1      25.384  -8.094  23.313  0.00  0.00    +0.000 C 
ATOM     11  C   UNL     1      24.978  -6.711  23.788  0.00  0.00    +0.000 C 
ATOM     12  C   UNL     1      23.482  -6.615  23.631  0.00  0.00    +0.000 C 
ENDBRANCH   4   7
BRANCH   1  14
ATOM     13  O   UNL     1      17.659  -6.749  27.756  0.00  0.00    +0.000 OA
ATOM     14  N   UNL     1      17.720  -7.029  26.540  0.00  0.00    +0.000 N 
ATOM     15  O   UNL     1      16.559  -7.183  25.862  0.00  0.00    +0.000 OA
ENDBRANCH   1  14
BRANCH   6  16
ATOM     16  N   UNL     1      18.500  -9.499  25.690  0.00  0.00    +0.000 NA
BRANCH  16  17
ATOM     17  C   UNL     1      18.889 -10.539  26.622  0.00  0.00    +0.000 C 
BRANCH  17  18
ATOM     18  C   UNL     1      18.590 -10.181  28.021  0.00  0.00    +0.000 A 
ATOM     19  C   UNL     1      19.558  -9.758  28.909  0.00  0.00    +0.000 A 
ATOM     20  C   UNL     1      18.931  -9.512  30.114  0.00  0.00    +0.000 A 
ATOM     21  C   UNL     1      17.602  -9.796  29.905  0.00  0.00    +0.000 A 
ATOM     22  O   UNL     1      17.451 -10.183  28.668  0.00  0.00    +0.000 OA
ENDBRANCH  17  18
ENDBRANCH  16  17
ENDBRANCH   6  16
TORSDOF 5
ENDMDL
MODEL 8
REMARK VINA RESULT:      -5.9     18.088     19.799
REMARK  Name = 
REMARK  5 active torsions:
REMARK  status: ('A' for Active; 'I' for Inactive)
REMARK    1  A    between atoms: N_2  and  C_4
REMARK    2  A    between atoms: C_7  and  N_8
REMARK    3  A    between atoms: C_15  and  N_16
REMARK    4  A    between atoms: N_16  and  C_17
REMARK    5  A    between atoms: C_17  and  C_18
REMARK                            x       y       z     vdW  Elec       q    Type
REMARK                         _______ _______ _______ _____ _____    ______ ____
ROOT
ATOM      1  C   UNL     1      25.975  24.258  24.887  0.00  0.00    +0.000 A 
ATOM      2  C   UNL     1      25.132  25.359  25.070  0.00  0.00    +0.000 A 
ATOM      3  C   UNL     1      24.723  25.772  26.317  0.00  0.00    +0.000 A 
ATOM      4  C   UNL     1      25.174  25.057  27.413  0.00  0.00    +0.000 A 
ATOM      5  C   UNL     1      26.004  23.973  27.226  0.00  0.00    +0.000 A 
ATOM      6  C   UNL     1      26.419  23.553  25.982  0.00  0.00    +0.000 A 
ENDROOT
BRANCH   4   7
ATOM      7  N   UNL     1      24.808  25.403  28.740  0.00  0.00    +0.000 N 
ATOM      8  C   UNL     1      23.717  26.339  28.900  0.00  0.00    +0.000 C 
ATOM      9  C   UNL     1      23.779  27.103  30.187  0.00  0.00    +0.000 C 
ATOM     10  C   UNL     1      24.304  26.280  31.337  0.00  0.00    +0.000 C 
ATOM     11  C   UNL     1      25.685  25.744  31.008  0.00  0.00    +0.000 C 
ATOM     12  C   UNL     1      25.527  24.816  29.831  0.00  0.00    +0.000 C 
ENDBRANCH   4   7
BRANCH   1  14
ATOM     13  O   UNL     1      27.431  24.351  23.128  0.00  0.00    +0.000 OA
ATOM     14  N   UNL     1      26.398  23.832  23.600  0.00  0.00    +0.000 N 
ATOM     15  O   UNL     1      25.755  22.902  22.857  0.00  0.00    +0.000 OA
ENDBRANCH   1  14
BRANCH   6  16
ATOM     16  N   UNL     1      27.273  22.441  25.775  0.00  0.00    +0.000 NA
BRANCH  16  17
ATOM     17  C   UNL     1      28.419  22.322  26.656  0.00  0.00    +0.000 C 
BRANCH  17  18
ATOM     18  C   UNL     1      29.656  22.832  26.039  0.00  0.00    +0.000 A 
ATOM     19  C   UNL     1      30.086  22.441  24.787  0.00  0.00    +0.000 A 
ATOM     20  C   UNL     1      31.266  23.110  24.529  0.00  0.00    +0.000 A 
ATOM     21  C   UNL     1      31.504  23.882  25.641  0.00  0.00    +0.000 A 
ATOM     22  O   UNL     1      30.537  23.688  26.496  0.00  0.00    +0.000 OA
ENDBRANCH  17  18
ENDBRANCH  16  17
ENDBRANCH   6  16
TORSDOF 5
ENDMDL
MODEL 9
REMARK VINA RESULT:      -5.9     17.589     20.031
REMARK  Name = 
REMARK  5 active torsions:
REMARK  status: ('A' for Active; 'I' for Inactive)
REMARK    1  A    between atoms: N_2  and  C_4
REMARK    2  A    between atoms: C_7  and  N_8
REMARK    3  A    between atoms: C_15  and  N_16
REMARK    4  A    between atoms: N_16  and  C_17
REMARK    5  A    between atoms: C_17  and  C_18
REMARK                            x       y       z     vdW  Elec       q    Type
REMARK                         _______ _______ _______ _____ _____    ______ ____
ROOT
ATOM      1  C   UNL     1      30.861  22.652  27.889  0.00  0.00    +0.000 A 
ATOM      2  C   UNL     1      31.215  22.662  26.536  0.00  0.00    +0.000 A 
ATOM      3  C   UNL     1      30.279  22.753  25.532  0.00  0.00    +0.000 A 
ATOM      4  C   UNL     1      28.948  22.836  25.897  0.00  0.00    +0.000 A 
ATOM      5  C   UNL     1      28.604  22.825  27.232  0.00  0.00    +0.000 A 
ATOM      6  C   UNL     1      29.534  22.736  28.244  0.00  0.00    +0.000 A 
ENDROOT
BRANCH   4   7
ATOM      7  N   UNL     1      27.908  22.933  24.936  0.00  0.00    +0.000 N 
ATOM      8  C   UNL     1      28.300  23.137  23.559  0.00  0.00    +0.000 C 
ATOM      9  C   UNL     1      27.246  23.816  22.739  0.00  0.00    +0.000 C 
ATOM     10  C   UNL     1      25.846  23.405  23.121  0.00  0.00    +0.000 C 
ATOM     11  C   UNL     1      25.598  23.694  24.591  0.00  0.00    +0.000 C 
ATOM     12  C   UNL     1      26.549  22.825  25.374  0.00  0.00    +0.000 C 
ENDBRANCH   4   7
BRANCH   1  14
ATOM     13  O   UNL     1      32.270  23.624  29.402  0.00  0.00    +0.000 OA
ATOM     14  N   UNL     1      31.826  22.559  28.926  0.00  0.00    +0.000 N 
ATOM     15  O   UNL     1      32.292  21.392  29.429  0.00  0.00    +0.000 OA
ENDBRANCH   1  14
BRANCH   6  16
ATOM     16  N   UNL     1      29.195  22.724  29.620  0.00  0.00    +0.000 NA
BRANCH  16  17
ATOM     17  C   UNL     1      27.824  22.390  29.954  0.00  0.00    +0.000 C 
BRANCH  17  18
ATOM     18  C   UNL     1      27.036  23.574  30.342  0.00  0.00    +0.000 A 
ATOM     19  C   UNL     1      25.961  24.032  29.606  0.00  0.00    +0.000 A 
ATOM     20  C   UNL     1      25.464  25.145  30.254  0.00  0.00    +0.000 A 
ATOM     21  C   UNL     1      26.262  25.317  31.361  0.00  0.00    +0.000 A 
ATOM     22  O   UNL     1      27.165  24.375  31.370  0.00  0.00    +0.000 OA
ENDBRANCH  17  18
ENDBRANCH  16  17
ENDBRANCH   6  16
TORSDOF 5
ENDMDL
MODEL 10
REMARK VINA RESULT:      -5.9     18.694     20.031
REMARK  Name = 
REMARK  5 active torsions:
REMARK  status: ('A' for Active; 'I' for Inactive)
REMARK    1  A    between atoms: N_2  and  C_4
REMARK    2  A    between atoms: C_7  and  N_8
REMARK    3  A    between atoms: C_15  and  N_16
REMARK    4  A    between atoms: N_16  and  C_17
REMARK    5  A    between atoms: C_17  and  C_18
REMARK                            x       y       z     vdW  Elec       q    Type
REMARK                         _______ _______ _______ _____ _____    ______ ____
ROOT
ATOM      1  C   UNL     1      27.470  23.623  23.477  0.00  0.00    +0.000 A 
ATOM      2  C   UNL     1      28.703  22.963  23.465  0.00  0.00    +0.000 A 
ATOM      3  C   UNL     1      29.475  22.827  24.595  0.00  0.00    +0.000 A 
ATOM      4  C   UNL     1      28.994  23.369  25.773  0.00  0.00    +0.000 A 
ATOM      5  C   UNL     1      27.779  24.019  25.780  0.00  0.00    +0.000 A 
ATOM      6  C   UNL     1      26.999  24.159  24.653  0.00  0.00    +0.000 A 
ENDROOT
BRANCH   4   7
ATOM      7  N   UNL     1      29.717  23.282  26.992  0.00  0.00    +0.000 N 
ATOM      8  C   UNL     1      31.041  22.703  26.934  0.00  0.00    +0.000 C 
ATOM      9  C   UNL     1      31.477  22.094  28.232  0.00  0.00    +0.000 C 
ATOM     10  C   UNL     1      30.990  22.861  29.436  0.00  0.00    +0.000 C 
ATOM     11  C   UNL     1      29.475  22.960  29.415  0.00  0.00    +0.000 C 
ATOM     12  C   UNL     1      29.105  23.764  28.194  0.00  0.00    +0.000 C 
ENDBRANCH   4   7
BRANCH   1  14
ATOM     13  O   UNL     1      26.959  24.686  21.520  0.00  0.00    +0.000 OA
ATOM     14  N   UNL     1      26.672  23.763  22.311  0.00  0.00    +0.000 N 
ATOM     15  O   UNL     1      25.625  22.963  22.005  0.00  0.00    +0.000 OA
ENDBRANCH   1  14
BRANCH   6  16
ATOM     16  N   UNL     1      25.747  24.824  24.646  0.00  0.00    +0.000 NA
BRANCH  16  17
ATOM     17  C   UNL     1      25.505  25.776  25.712  0.00  0.00    +0.000 C 
BRANCH  17  18
ATOM     18  C   UNL     1      24.071  26.073  25.885  0.00  0.00    +0.000 A 
ATOM     19  C   UNL     1      23.433  26.000  27.107  0.00  0.00    +0.000 A 
ATOM     20  C   UNL     1      22.111  26.340  26.902  0.00  0.00    +0.000 A 
ATOM     21  C   UNL     1      22.002  26.606  25.558  0.00  0.00    +0.000 A 
ATOM     22  O   UNL     1      23.172  26.437  25.005  0.00  0.00    +0.000 OA
ENDBRANCH  17  18
ENDBRANCH  16  17
ENDBRANCH   6  16
TORSDOF 5
ENDMDL
