MODEL 1
REMARK VINA RESULT:      -8.5      0.000      0.000
REMARK  Name = 
REMARK  8 active torsions:
REMARK  status: ('A' for Active; 'I' for Inactive)
REMARK    1  A    between atoms: O_2  and  C_3
REMARK    2  A    between atoms: C_7  and  C_8
REMARK    3  A    between atoms: N_9  and  N_10
REMARK    4  A    between atoms: C_11  and  C_13
REMARK    5  A    between atoms: C_13  and  S_14
REMARK    6  A    between atoms: S_14  and  C_15
REMARK    7  A    between atoms: N_23  and  C_24
REMARK    8  A    between atoms: C_24  and  C_25
REMARK                            x       y       z     vdW  Elec       q    Type
REMARK                         _______ _______ _______ _____ _____    ______ ____
ROOT
ATOM      1  C   UNL     1      36.954  -0.164  15.866  0.00  0.00    +0.000 A 
ATOM      2  N   UNL     1      36.618  -0.053  17.178  0.00  0.00    +0.000 NA
ATOM      3  C   UNL     1      37.177  -1.045  17.901  0.00  0.00    +0.000 A 
ATOM      4  C   UNL     1      37.166  -1.397  19.234  0.00  0.00    +0.000 A 
ATOM      5  C   UNL     1      37.861  -2.501  19.663  0.00  0.00    +0.000 A 
ATOM      6  C   UNL     1      38.569  -3.254  18.761  0.00  0.00    +0.000 A 
ATOM      7  C   UNL     1      38.571  -2.889  17.434  0.00  0.00    +0.000 A 
ATOM      8  C   UNL     1      37.892  -1.797  16.961  0.00  0.00    +0.000 A 
ATOM      9  N   UNL     1      37.738  -1.243  15.749  0.00  0.00    +0.000 N 
ENDROOT
BRANCH   1  10
ATOM     10  S   UNL     1      36.435   0.937  14.546  0.00  0.00    +0.000 S 
BRANCH  10  11
ATOM     11  C   UNL     1      36.147   2.584  15.224  0.00  0.00    +0.000 C 
BRANCH  11  13
ATOM     12  N   UNL     1      37.335   3.695  17.199  0.00  0.00    +0.000 NA
ATOM     13  C   UNL     1      37.355   3.037  15.956  0.00  0.00    +0.000 C 
ATOM     14  O   UNL     1      38.486   2.817  15.427  0.00  0.00    +0.000 OA
BRANCH  12  16
ATOM     15  C   UNL     1      38.796   5.363  17.755  0.00  0.00    +0.000 C 
ATOM     16  N   UNL     1      38.519   4.109  17.860  0.00  0.00    +0.000 NA
BRANCH  15  21
ATOM     17  C   UNL     1      42.296   6.655  18.244  0.00  0.00    +0.000 A 
ATOM     18  C   UNL     1      42.277   7.069  19.557  0.00  0.00    +0.000 A 
ATOM     19  C   UNL     1      41.106   6.915  20.268  0.00  0.00    +0.000 A 
ATOM     20  C   UNL     1      39.975   6.366  19.698  0.00  0.00    +0.000 A 
ATOM     21  C   UNL     1      39.989   5.951  18.383  0.00  0.00    +0.000 A 
ATOM     22  C   UNL     1      41.157   6.109  17.691  0.00  0.00    +0.000 A 
BRANCH  17  24
ATOM     23  C   UNL     1      43.384   6.810  16.071  0.00  0.00    +0.000 C 
ATOM     24  O   UNL     1      43.470   6.793  17.480  0.00  0.00    +0.000 OA
ENDBRANCH  17  24
ENDBRANCH  15  21
ENDBRANCH  12  16
ENDBRANCH  11  13
ENDBRANCH  10  11
ENDBRANCH   1  10
BRANCH   9  25
ATOM     25  C   UNL     1      38.338  -1.759  14.542  0.00  0.00    +0.000 C 
BRANCH  25  26
ATOM     26  C   UNL     1      39.755  -1.338  14.415  0.00  0.00    +0.000 A 
ATOM     27  C   UNL     1      40.085  -0.034  14.110  0.00  0.00    +0.000 A 
ATOM     28  C   UNL     1      41.406   0.377  13.988  0.00  0.00    +0.000 A 
ATOM     29  C   UNL     1      42.438  -0.516  14.169  0.00  0.00    +0.000 A 
ATOM     30  C   UNL     1      42.124  -1.823  14.474  0.00  0.00    +0.000 A 
ATOM     31  C   UNL     1      40.792  -2.226  14.595  0.00  0.00    +0.000 A 
ENDBRANCH  25  26
ENDBRANCH   9  25
TORSDOF 8
ENDMDL
MODEL 2
REMARK VINA RESULT:      -8.4      1.851      2.475
REMARK  Name = 
REMARK  8 active torsions:
REMARK  status: ('A' for Active; 'I' for Inactive)
REMARK    1  A    between atoms: O_2  and  C_3
REMARK    2  A    between atoms: C_7  and  C_8
REMARK    3  A    between atoms: N_9  and  N_10
REMARK    4  A    between atoms: C_11  and  C_13
REMARK    5  A    between atoms: C_13  and  S_14
REMARK    6  A    between atoms: S_14  and  C_15
REMARK    7  A    between atoms: N_23  and  C_24
REMARK    8  A    between atoms: C_24  and  C_25
REMARK                            x       y       z     vdW  Elec       q    Type
REMARK                         _______ _______ _______ _____ _____    ______ ____
ROOT
ATOM      1  C   UNL     1      36.659  -0.519  16.174  0.00  0.00    +0.000 A 
ATOM      2  N   UNL     1      36.407  -0.417  17.505  0.00  0.00    +0.000 NA
ATOM      3  C   UNL     1      37.105  -1.340  18.197  0.00  0.00    +0.000 A 
ATOM      4  C   UNL     1      37.219  -1.670  19.532  0.00  0.00    +0.000 A 
ATOM      5  C   UNL     1      38.042  -2.697  19.922  0.00  0.00    +0.000 A 
ATOM      6  C   UNL     1      38.753  -3.397  18.980  0.00  0.00    +0.000 A 
ATOM      7  C   UNL     1      38.629  -3.056  17.653  0.00  0.00    +0.000 A 
ATOM      8  C   UNL     1      37.819  -2.040  17.217  0.00  0.00    +0.000 A 
ATOM      9  N   UNL     1      37.531  -1.523  16.013  0.00  0.00    +0.000 N 
ENDROOT
BRANCH   1  10
ATOM     10  S   UNL     1      35.950   0.506  14.883  0.00  0.00    +0.000 S 
BRANCH  10  11
ATOM     11  C   UNL     1      37.045   1.904  14.564  0.00  0.00    +0.000 C 
BRANCH  11  13
ATOM     12  N   UNL     1      38.337   3.373  16.213  0.00  0.00    +0.000 NA
ATOM     13  C   UNL     1      37.158   2.734  15.789  0.00  0.00    +0.000 C 
ATOM     14  O   UNL     1      36.123   2.878  16.505  0.00  0.00    +0.000 OA
BRANCH  12  16
ATOM     15  C   UNL     1      38.835   5.357  17.233  0.00  0.00    +0.000 C 
ATOM     16  N   UNL     1      38.396   4.157  17.393  0.00  0.00    +0.000 NA
BRANCH  15  21
ATOM     17  C   UNL     1      38.174   8.245  19.553  0.00  0.00    +0.000 A 
ATOM     18  C   UNL     1      39.169   8.100  20.494  0.00  0.00    +0.000 A 
ATOM     19  C   UNL     1      40.049   7.049  20.351  0.00  0.00    +0.000 A 
ATOM     20  C   UNL     1      39.952   6.156  19.303  0.00  0.00    +0.000 A 
ATOM     21  C   UNL     1      38.958   6.296  18.358  0.00  0.00    +0.000 A 
ATOM     22  C   UNL     1      38.093   7.343  18.513  0.00  0.00    +0.000 A 
BRANCH  17  24
ATOM     23  C   UNL     1      37.519  10.523  18.999  0.00  0.00    +0.000 C 
ATOM     24  O   UNL     1      37.254   9.304  19.659  0.00  0.00    +0.000 OA
ENDBRANCH  17  24
ENDBRANCH  15  21
ENDBRANCH  12  16
ENDBRANCH  11  13
ENDBRANCH  10  11
ENDBRANCH   1  10
BRANCH   9  25
ATOM     25  C   UNL     1      38.091  -2.003  14.773  0.00  0.00    +0.000 C 
BRANCH  25  26
ATOM     26  C   UNL     1      39.490  -1.544  14.593  0.00  0.00    +0.000 A 
ATOM     27  C   UNL     1      40.540  -2.438  14.619  0.00  0.00    +0.000 A 
ATOM     28  C   UNL     1      41.856  -2.026  14.451  0.00  0.00    +0.000 A 
ATOM     29  C   UNL     1      42.156  -0.697  14.255  0.00  0.00    +0.000 A 
ATOM     30  C   UNL     1      41.116   0.209  14.228  0.00  0.00    +0.000 A 
ATOM     31  C   UNL     1      39.796  -0.216  14.396  0.00  0.00    +0.000 A 
ENDBRANCH  25  26
ENDBRANCH   9  25
TORSDOF 8
ENDMDL
MODEL 3
REMARK VINA RESULT:      -8.4      2.249      3.923
REMARK  Name = 
REMARK  8 active torsions:
REMARK  status: ('A' for Active; 'I' for Inactive)
REMARK    1  A    between atoms: O_2  and  C_3
REMARK    2  A    between atoms: C_7  and  C_8
REMARK    3  A    between atoms: N_9  and  N_10
REMARK    4  A    between atoms: C_11  and  C_13
REMARK    5  A    between atoms: C_13  and  S_14
REMARK    6  A    between atoms: S_14  and  C_15
REMARK    7  A    between atoms: N_23  and  C_24
REMARK    8  A    between atoms: C_24  and  C_25
REMARK                            x       y       z     vdW  Elec       q    Type
REMARK                         _______ _______ _______ _____ _____    ______ ____
ROOT
ATOM      1  C   UNL     1      36.818  -0.544  16.124  0.00  0.00    +0.000 A 
ATOM      2  N   UNL     1      37.826  -0.000  15.394  0.00  0.00    +0.000 NA
ATOM      3  C   UNL     1      38.851  -0.867  15.272  0.00  0.00    +0.000 A 
ATOM      4  C   UNL     1      40.083  -0.831  14.653  0.00  0.00    +0.000 A 
ATOM      5  C   UNL     1      40.921  -1.917  14.719  0.00  0.00    +0.000 A 
ATOM      6  C   UNL     1      40.530  -3.041  15.401  0.00  0.00    +0.000 A 
ATOM      7  C   UNL     1      39.297  -3.062  16.013  0.00  0.00    +0.000 A 
ATOM      8  C   UNL     1      38.428  -2.003  15.975  0.00  0.00    +0.000 A 
ATOM      9  N   UNL     1      37.204  -1.777  16.474  0.00  0.00    +0.000 N 
ENDROOT
BRANCH   1  10
ATOM     10  S   UNL     1      35.262   0.253  16.536  0.00  0.00    +0.000 S 
BRANCH  10  11
ATOM     11  C   UNL     1      35.430   2.035  16.313  0.00  0.00    +0.000 C 
BRANCH  11  13
ATOM     12  N   UNL     1      37.365   3.639  16.792  0.00  0.00    +0.000 NA
ATOM     13  C   UNL     1      36.565   2.532  17.129  0.00  0.00    +0.000 C 
ATOM     14  O   UNL     1      36.836   1.918  18.204  0.00  0.00    +0.000 OA
BRANCH  12  16
ATOM     15  C   UNL     1      38.734   5.326  17.502  0.00  0.00    +0.000 C 
ATOM     16  N   UNL     1      38.441   4.076  17.606  0.00  0.00    +0.000 NA
BRANCH  15  21
ATOM     17  C   UNL     1      42.127   6.650  18.449  0.00  0.00    +0.000 A 
ATOM     18  C   UNL     1      41.921   7.094  19.736  0.00  0.00    +0.000 A 
ATOM     19  C   UNL     1      40.661   6.951  20.277  0.00  0.00    +0.000 A 
ATOM     20  C   UNL     1      39.623   6.383  19.567  0.00  0.00    +0.000 A 
ATOM     21  C   UNL     1      39.825   5.935  18.278  0.00  0.00    +0.000 A 
ATOM     22  C   UNL     1      41.079   6.084  17.754  0.00  0.00    +0.000 A 
BRANCH  17  24
ATOM     23  C   UNL     1      44.385   7.559  18.490  0.00  0.00    +0.000 C 
ATOM     24  O   UNL     1      43.397   6.775  17.856  0.00  0.00    +0.000 OA
ENDBRANCH  17  24
ENDBRANCH  15  21
ENDBRANCH  12  16
ENDBRANCH  11  13
ENDBRANCH  10  11
ENDBRANCH   1  10
BRANCH   9  25
ATOM     25  C   UNL     1      36.462  -2.736  17.257  0.00  0.00    +0.000 C 
BRANCH  25  26
ATOM     26  C   UNL     1      35.676  -3.652  16.394  0.00  0.00    +0.000 A 
ATOM     27  C   UNL     1      34.497  -3.240  15.809  0.00  0.00    +0.000 A 
ATOM     28  C   UNL     1      33.750  -4.085  14.997  0.00  0.00    +0.000 A 
ATOM     29  C   UNL     1      34.167  -5.373  14.752  0.00  0.00    +0.000 A 
ATOM     30  C   UNL     1      35.344  -5.799  15.331  0.00  0.00    +0.000 A 
ATOM     31  C   UNL     1      36.089  -4.942  16.145  0.00  0.00    +0.000 A 
ENDBRANCH  25  26
ENDBRANCH   9  25
TORSDOF 8
ENDMDL
MODEL 4
REMARK VINA RESULT:      -8.3      1.923      4.220
REMARK  Name = 
REMARK  8 active torsions:
REMARK  status: ('A' for Active; 'I' for Inactive)
REMARK    1  A    between atoms: O_2  and  C_3
REMARK    2  A    between atoms: C_7  and  C_8
REMARK    3  A    between atoms: N_9  and  N_10
REMARK    4  A    between atoms: C_11  and  C_13
REMARK    5  A    between atoms: C_13  and  S_14
REMARK    6  A    between atoms: S_14  and  C_15
REMARK    7  A    between atoms: N_23  and  C_24
REMARK    8  A    between atoms: C_24  and  C_25
REMARK                            x       y       z     vdW  Elec       q    Type
REMARK                         _______ _______ _______ _____ _____    ______ ____
ROOT
ATOM      1  C   UNL     1      37.949  -0.406  14.839  0.00  0.00    +0.000 A 
ATOM      2  N   UNL     1      38.920   0.408  14.350  0.00  0.00    +0.000 NA
ATOM      3  C   UNL     1      40.109  -0.228  14.319  0.00  0.00    +0.000 A 
ATOM      4  C   UNL     1      41.385   0.119  13.927  0.00  0.00    +0.000 A 
ATOM      5  C   UNL     1      42.409  -0.790  14.026  0.00  0.00    +0.000 A 
ATOM      6  C   UNL     1      42.161  -2.046  14.516  0.00  0.00    +0.000 A 
ATOM      7  C   UNL     1      40.883  -2.379  14.902  0.00  0.00    +0.000 A 
ATOM      8  C   UNL     1      39.830  -1.505  14.823  0.00  0.00    +0.000 A 
ATOM      9  N   UNL     1      38.526  -1.580  15.125  0.00  0.00    +0.000 N 
ENDROOT
BRANCH   1  10
ATOM     10  S   UNL     1      36.219   0.024  15.056  0.00  0.00    +0.000 S 
BRANCH  10  11
ATOM     11  C   UNL     1      36.032   1.814  14.935  0.00  0.00    +0.000 C 
BRANCH  11  13
ATOM     12  N   UNL     1      37.543   3.567  16.027  0.00  0.00    +0.000 NA
ATOM     13  C   UNL     1      36.678   2.460  16.104  0.00  0.00    +0.000 C 
ATOM     14  O   UNL     1      36.437   1.983  17.254  0.00  0.00    +0.000 OA
BRANCH  12  16
ATOM     15  C   UNL     1      38.117   5.437  17.210  0.00  0.00    +0.000 C 
ATOM     16  N   UNL     1      38.137   4.150  17.175  0.00  0.00    +0.000 NA
BRANCH  15  21
ATOM     17  C   UNL     1      38.606   8.064  19.859  0.00  0.00    +0.000 A 
ATOM     18  C   UNL     1      39.770   7.654  20.469  0.00  0.00    +0.000 A 
ATOM     19  C   UNL     1      40.381   6.512  19.997  0.00  0.00    +0.000 A 
ATOM     20  C   UNL     1      39.858   5.787  18.946  0.00  0.00    +0.000 A 
ATOM     21  C   UNL     1      38.693   6.194  18.332  0.00  0.00    +0.000 A 
ATOM     22  C   UNL     1      38.098   7.328  18.810  0.00  0.00    +0.000 A 
BRANCH  17  24
ATOM     23  C   UNL     1      38.650  10.160  21.097  0.00  0.00    +0.000 C 
ATOM     24  O   UNL     1      37.948   9.224  20.307  0.00  0.00    +0.000 OA
ENDBRANCH  17  24
ENDBRANCH  15  21
ENDBRANCH  12  16
ENDBRANCH  11  13
ENDBRANCH  10  11
ENDBRANCH   1  10
BRANCH   9  25
ATOM     25  C   UNL     1      37.889  -2.756  15.670  0.00  0.00    +0.000 C 
BRANCH  25  26
ATOM     26  C   UNL     1      38.027  -2.815  17.146  0.00  0.00    +0.000 A 
ATOM     27  C   UNL     1      37.504  -1.822  17.949  0.00  0.00    +0.000 A 
ATOM     28  C   UNL     1      37.623  -1.863  19.333  0.00  0.00    +0.000 A 
ATOM     29  C   UNL     1      38.276  -2.905  19.951  0.00  0.00    +0.000 A 
ATOM     30  C   UNL     1      38.804  -3.904  19.161  0.00  0.00    +0.000 A 
ATOM     31  C   UNL     1      38.678  -3.855  17.771  0.00  0.00    +0.000 A 
ENDBRANCH  25  26
ENDBRANCH   9  25
TORSDOF 8
ENDMDL
MODEL 5
REMARK VINA RESULT:      -7.9      1.315      3.579
REMARK  Name = 
REMARK  8 active torsions:
REMARK  status: ('A' for Active; 'I' for Inactive)
REMARK    1  A    between atoms: O_2  and  C_3
REMARK    2  A    between atoms: C_7  and  C_8
REMARK    3  A    between atoms: N_9  and  N_10
REMARK    4  A    between atoms: C_11  and  C_13
REMARK    5  A    between atoms: C_13  and  S_14
REMARK    6  A    between atoms: S_14  and  C_15
REMARK    7  A    between atoms: N_23  and  C_24
REMARK    8  A    between atoms: C_24  and  C_25
REMARK                            x       y       z     vdW  Elec       q    Type
REMARK                         _______ _______ _______ _____ _____    ______ ____
ROOT
ATOM      1  C   UNL     1      38.021   0.511  14.365  0.00  0.00    +0.000 A 
ATOM      2  N   UNL     1      39.147   1.221  14.092  0.00  0.00    +0.000 NA
ATOM      3  C   UNL     1      40.238   0.432  14.156  0.00  0.00    +0.000 A 
ATOM      4  C   UNL     1      41.591   0.630  13.972  0.00  0.00    +0.000 A 
ATOM      5  C   UNL     1      42.468  -0.416  14.116  0.00  0.00    +0.000 A 
ATOM      6  C   UNL     1      41.997  -1.662  14.441  0.00  0.00    +0.000 A 
ATOM      7  C   UNL     1      40.645  -1.845  14.620  0.00  0.00    +0.000 A 
ATOM      8  C   UNL     1      39.732  -0.831  14.488  0.00  0.00    +0.000 A 
ATOM      9  N   UNL     1      38.399  -0.751  14.607  0.00  0.00    +0.000 N 
ENDROOT
BRANCH   1  10
ATOM     10  S   UNL     1      36.346   1.157  14.392  0.00  0.00    +0.000 S 
BRANCH  10  11
ATOM     11  C   UNL     1      35.687   1.032  16.067  0.00  0.00    +0.000 C 
BRANCH  11  13
ATOM     12  N   UNL     1      37.009   3.156  16.599  0.00  0.00    +0.000 NA
ATOM     13  C   UNL     1      36.464   1.914  16.971  0.00  0.00    +0.000 C 
ATOM     14  O   UNL     1      36.651   1.525  18.163  0.00  0.00    +0.000 OA
BRANCH  12  16
ATOM     15  C   UNL     1      38.749   4.587  16.986  0.00  0.00    +0.000 C 
ATOM     16  N   UNL     1      37.745   3.966  17.501  0.00  0.00    +0.000 NA
BRANCH  15  21
ATOM     17  C   UNL     1      41.580   6.857  17.984  0.00  0.00    +0.000 A 
ATOM     18  C   UNL     1      41.277   7.146  19.296  0.00  0.00    +0.000 A 
ATOM     19  C   UNL     1      40.140   6.586  19.837  0.00  0.00    +0.000 A 
ATOM     20  C   UNL     1      39.315   5.759  19.103  0.00  0.00    +0.000 A 
ATOM     21  C   UNL     1      39.613   5.467  17.788  0.00  0.00    +0.000 A 
ATOM     22  C   UNL     1      40.744   6.029  17.265  0.00  0.00    +0.000 A 
BRANCH  17  24
ATOM     23  C   UNL     1      44.004   7.062  17.894  0.00  0.00    +0.000 C 
ATOM     24  O   UNL     1      42.731   7.406  17.390  0.00  0.00    +0.000 OA
ENDBRANCH  17  24
ENDBRANCH  15  21
ENDBRANCH  12  16
ENDBRANCH  11  13
ENDBRANCH  10  11
ENDBRANCH   1  10
BRANCH   9  25
ATOM     25  C   UNL     1      37.548  -1.867  14.943  0.00  0.00    +0.000 C 
BRANCH  25  26
ATOM     26  C   UNL     1      37.897  -2.438  16.267  0.00  0.00    +0.000 A 
ATOM     27  C   UNL     1      37.904  -1.653  17.401  0.00  0.00    +0.000 A 
ATOM     28  C   UNL     1      38.227  -2.172  18.648  0.00  0.00    +0.000 A 
ATOM     29  C   UNL     1      38.557  -3.501  18.792  0.00  0.00    +0.000 A 
ATOM     30  C   UNL     1      38.555  -4.298  17.666  0.00  0.00    +0.000 A 
ATOM     31  C   UNL     1      38.227  -3.767  16.417  0.00  0.00    +0.000 A 
ENDBRANCH  25  26
ENDBRANCH   9  25
TORSDOF 8
ENDMDL
MODEL 6
REMARK VINA RESULT:      -7.9      3.216      9.508
REMARK  Name = 
REMARK  8 active torsions:
REMARK  status: ('A' for Active; 'I' for Inactive)
REMARK    1  A    between atoms: O_2  and  C_3
REMARK    2  A    between atoms: C_7  and  C_8
REMARK    3  A    between atoms: N_9  and  N_10
REMARK    4  A    between atoms: C_11  and  C_13
REMARK    5  A    between atoms: C_13  and  S_14
REMARK    6  A    between atoms: S_14  and  C_15
REMARK    7  A    between atoms: N_23  and  C_24
REMARK    8  A    between atoms: C_24  and  C_25
REMARK                            x       y       z     vdW  Elec       q    Type
REMARK                         _______ _______ _______ _____ _____    ______ ____
ROOT
ATOM      1  C   UNL     1      40.646   6.001  16.683  0.00  0.00    +0.000 A 
ATOM      2  N   UNL     1      41.876   6.348  16.223  0.00  0.00    +0.000 NA
ATOM      3  C   UNL     1      42.709   6.628  17.246  0.00  0.00    +0.000 A 
ATOM      4  C   UNL     1      44.028   7.020  17.343  0.00  0.00    +0.000 A 
ATOM      5  C   UNL     1      44.597   7.230  18.574  0.00  0.00    +0.000 A 
ATOM      6  C   UNL     1      43.851   7.050  19.711  0.00  0.00    +0.000 A 
ATOM      7  C   UNL     1      42.536   6.658  19.598  0.00  0.00    +0.000 A 
ATOM      8  C   UNL     1      41.926   6.438  18.391  0.00  0.00    +0.000 A 
ATOM      9  N   UNL     1      40.693   6.061  18.020  0.00  0.00    +0.000 N 
ENDROOT
BRANCH   1  10
ATOM     10  S   UNL     1      39.230   5.549  15.676  0.00  0.00    +0.000 S 
BRANCH  10  11
ATOM     11  C   UNL     1      39.760   4.409  14.382  0.00  0.00    +0.000 C 
BRANCH  11  13
ATOM     12  N   UNL     1      38.096   2.772  15.429  0.00  0.00    +0.000 NA
ATOM     13  C   UNL     1      39.258   3.047  14.687  0.00  0.00    +0.000 C 
ATOM     14  O   UNL     1      39.921   2.059  14.249  0.00  0.00    +0.000 OA
BRANCH  12  16
ATOM     15  C   UNL     1      36.383   1.314  15.834  0.00  0.00    +0.000 C 
ATOM     16  N   UNL     1      37.656   1.451  15.695  0.00  0.00    +0.000 NA
BRANCH  15  21
ATOM     17  C   UNL     1      35.542  -2.348  15.624  0.00  0.00    +0.000 A 
ATOM     18  C   UNL     1      34.610  -2.494  16.627  0.00  0.00    +0.000 A 
ATOM     19  C   UNL     1      34.269  -1.379  17.362  0.00  0.00    +0.000 A 
ATOM     20  C   UNL     1      34.834  -0.144  17.117  0.00  0.00    +0.000 A 
ATOM     21  C   UNL     1      35.768   0.007  16.114  0.00  0.00    +0.000 A 
ATOM     22  C   UNL     1      36.096  -1.107  15.393  0.00  0.00    +0.000 A 
BRANCH  17  24
ATOM     23  C   UNL     1      35.117  -4.619  14.858  0.00  0.00    +0.000 C 
ATOM     24  O   UNL     1      35.920  -3.459  14.848  0.00  0.00    +0.000 OA
ENDBRANCH  17  24
ENDBRANCH  15  21
ENDBRANCH  12  16
ENDBRANCH  11  13
ENDBRANCH  10  11
ENDBRANCH   1  10
BRANCH   9  25
ATOM     25  C   UNL     1      39.622   5.779  18.945  0.00  0.00    +0.000 C 
BRANCH  25  26
ATOM     26  C   UNL     1      38.908   7.016  19.346  0.00  0.00    +0.000 A 
ATOM     27  C   UNL     1      37.891   7.533  18.571  0.00  0.00    +0.000 A 
ATOM     28  C   UNL     1      37.211   8.690  18.933  0.00  0.00    +0.000 A 
ATOM     29  C   UNL     1      37.538   9.364  20.087  0.00  0.00    +0.000 A 
ATOM     30  C   UNL     1      38.553   8.859  20.872  0.00  0.00    +0.000 A 
ATOM     31  C   UNL     1      39.230   7.695  20.500  0.00  0.00    +0.000 A 
ENDBRANCH  25  26
ENDBRANCH   9  25
TORSDOF 8
ENDMDL
MODEL 7
REMARK VINA RESULT:      -7.7      2.675      9.402
REMARK  Name = 
REMARK  8 active torsions:
REMARK  status: ('A' for Active; 'I' for Inactive)
REMARK    1  A    between atoms: O_2  and  C_3
REMARK    2  A    between atoms: C_7  and  C_8
REMARK    3  A    between atoms: N_9  and  N_10
REMARK    4  A    between atoms: C_11  and  C_13
REMARK    5  A    between atoms: C_13  and  S_14
REMARK    6  A    between atoms: S_14  and  C_15
REMARK    7  A    between atoms: N_23  and  C_24
REMARK    8  A    between atoms: C_24  and  C_25
REMARK                            x       y       z     vdW  Elec       q    Type
REMARK                         _______ _______ _______ _____ _____    ______ ____
ROOT
ATOM      1  C   UNL     1      40.741   6.207  16.464  0.00  0.00    +0.000 A 
ATOM      2  N   UNL     1      41.991   6.578  16.085  0.00  0.00    +0.000 NA
ATOM      3  C   UNL     1      42.794   6.721  17.159  0.00  0.00    +0.000 A 
ATOM      4  C   UNL     1      44.116   7.071  17.342  0.00  0.00    +0.000 A 
ATOM      5  C   UNL     1      44.647   7.126  18.607  0.00  0.00    +0.000 A 
ATOM      6  C   UNL     1      43.861   6.831  19.691  0.00  0.00    +0.000 A 
ATOM      7  C   UNL     1      42.544   6.483  19.492  0.00  0.00    +0.000 A 
ATOM      8  C   UNL     1      41.970   6.416  18.250  0.00  0.00    +0.000 A 
ATOM      9  N   UNL     1      40.744   6.111  17.799  0.00  0.00    +0.000 N 
ENDROOT
BRANCH   1  10
ATOM     10  S   UNL     1      39.351   5.904  15.367  0.00  0.00    +0.000 S 
BRANCH  10  11
ATOM     11  C   UNL     1      39.695   4.446  14.361  0.00  0.00    +0.000 C 
BRANCH  11  13
ATOM     12  N   UNL     1      39.140   1.951  14.465  0.00  0.00    +0.000 NA
ATOM     13  C   UNL     1      39.114   3.247  15.013  0.00  0.00    +0.000 C 
ATOM     14  O   UNL     1      38.556   3.396  16.141  0.00  0.00    +0.000 OA
BRANCH  12  16
ATOM     15  C   UNL     1      39.290  -0.234  15.117  0.00  0.00    +0.000 C 
ATOM     16  N   UNL     1      38.570   0.834  15.127  0.00  0.00    +0.000 NA
BRANCH  15  21
ATOM     17  C   UNL     1      37.141  -2.737  16.929  0.00  0.00    +0.000 A 
ATOM     18  C   UNL     1      37.962  -3.841  16.988  0.00  0.00    +0.000 A 
ATOM     19  C   UNL     1      39.219  -3.746  16.429  0.00  0.00    +0.000 A 
ATOM     20  C   UNL     1      39.659  -2.588  15.822  0.00  0.00    +0.000 A 
ATOM     21  C   UNL     1      38.841  -1.479  15.759  0.00  0.00    +0.000 A 
ATOM     22  C   UNL     1      37.598  -1.589  16.318  0.00  0.00    +0.000 A 
BRANCH  17  24
ATOM     23  C   UNL     1      34.757  -2.277  16.756  0.00  0.00    +0.000 C 
ATOM     24  O   UNL     1      35.851  -2.789  17.487  0.00  0.00    +0.000 OA
ENDBRANCH  17  24
ENDBRANCH  15  21
ENDBRANCH  12  16
ENDBRANCH  11  13
ENDBRANCH  10  11
ENDBRANCH   1  10
BRANCH   9  25
ATOM     25  C   UNL     1      39.638   5.746  18.651  0.00  0.00    +0.000 C 
BRANCH  25  26
ATOM     26  C   UNL     1      38.934   6.943  19.173  0.00  0.00    +0.000 A 
ATOM     27  C   UNL     1      37.911   7.533  18.460  0.00  0.00    +0.000 A 
ATOM     28  C   UNL     1      37.241   8.654  18.935  0.00  0.00    +0.000 A 
ATOM     29  C   UNL     1      37.583   9.217  20.143  0.00  0.00    +0.000 A 
ATOM     30  C   UNL     1      38.604   8.638  20.867  0.00  0.00    +0.000 A 
ATOM     31  C   UNL     1      39.271   7.511  20.382  0.00  0.00    +0.000 A 
ENDBRANCH  25  26
ENDBRANCH   9  25
TORSDOF 8
ENDMDL
MODEL 8
REMARK VINA RESULT:      -7.6      1.599      3.684
REMARK  Name = 
REMARK  8 active torsions:
REMARK  status: ('A' for Active; 'I' for Inactive)
REMARK    1  A    between atoms: O_2  and  C_3
REMARK    2  A    between atoms: C_7  and  C_8
REMARK    3  A    between atoms: N_9  and  N_10
REMARK    4  A    between atoms: C_11  and  C_13
REMARK    5  A    between atoms: C_13  and  S_14
REMARK    6  A    between atoms: S_14  and  C_15
REMARK    7  A    between atoms: N_23  and  C_24
REMARK    8  A    between atoms: C_24  and  C_25
REMARK                            x       y       z     vdW  Elec       q    Type
REMARK                         _______ _______ _______ _____ _____    ______ ____
ROOT
ATOM      1  C   UNL     1      36.749   0.075  15.166  0.00  0.00    +0.000 A 
ATOM      2  N   UNL     1      37.554   0.562  14.185  0.00  0.00    +0.000 NA
ATOM      3  C   UNL     1      38.165  -0.442  13.525  0.00  0.00    +0.000 A 
ATOM      4  C   UNL     1      39.057  -0.511  12.474  0.00  0.00    +0.000 A 
ATOM      5  C   UNL     1      39.501  -1.729  12.024  0.00  0.00    +0.000 A 
ATOM      6  C   UNL     1      39.056  -2.881  12.621  0.00  0.00    +0.000 A 
ATOM      7  C   UNL     1      38.165  -2.797  13.667  0.00  0.00    +0.000 A 
ATOM      8  C   UNL     1      37.696  -1.604  14.151  0.00  0.00    +0.000 A 
ATOM      9  N   UNL     1      36.848  -1.260  15.131  0.00  0.00    +0.000 N 
ENDROOT
BRANCH   1  10
ATOM     10  S   UNL     1      35.746   1.051  16.291  0.00  0.00    +0.000 S 
BRANCH  10  11
ATOM     11  C   UNL     1      35.520   2.704  15.605  0.00  0.00    +0.000 C 
BRANCH  11  13
ATOM     12  N   UNL     1      37.526   3.437  17.014  0.00  0.00    +0.000 NA
ATOM     13  C   UNL     1      36.739   3.513  15.850  0.00  0.00    +0.000 C 
ATOM     14  O   UNL     1      37.099   4.331  14.951  0.00  0.00    +0.000 OA
BRANCH  12  16
ATOM     15  C   UNL     1      38.696   4.936  18.282  0.00  0.00    +0.000 C 
ATOM     16  N   UNL     1      38.684   4.233  17.203  0.00  0.00    +0.000 NA
BRANCH  15  21
ATOM     17  C   UNL     1      41.947   6.817  18.049  0.00  0.00    +0.000 A 
ATOM     18  C   UNL     1      41.989   7.483  19.253  0.00  0.00    +0.000 A 
ATOM     19  C   UNL     1      40.941   7.302  20.131  0.00  0.00    +0.000 A 
ATOM     20  C   UNL     1      39.872   6.483  19.829  0.00  0.00    +0.000 A 
ATOM     21  C   UNL     1      39.825   5.814  18.624  0.00  0.00    +0.000 A 
ATOM     22  C   UNL     1      40.871   6.003  17.764  0.00  0.00    +0.000 A 
BRANCH  17  24
ATOM     23  C   UNL     1      44.139   7.715  17.486  0.00  0.00    +0.000 C 
ATOM     24  O   UNL     1      42.995   6.972  17.123  0.00  0.00    +0.000 OA
ENDBRANCH  17  24
ENDBRANCH  15  21
ENDBRANCH  12  16
ENDBRANCH  11  13
ENDBRANCH  10  11
ENDBRANCH   1  10
BRANCH   9  25
ATOM     25  C   UNL     1      36.174  -2.207  15.986  0.00  0.00    +0.000 C 
BRANCH  25  26
ATOM     26  C   UNL     1      37.010  -2.576  17.155  0.00  0.00    +0.000 A 
ATOM     27  C   UNL     1      37.013  -1.806  18.299  0.00  0.00    +0.000 A 
ATOM     28  C   UNL     1      37.789  -2.138  19.403  0.00  0.00    +0.000 A 
ATOM     29  C   UNL     1      38.589  -3.257  19.387  0.00  0.00    +0.000 A 
ATOM     30  C   UNL     1      38.597  -4.037  18.250  0.00  0.00    +0.000 A 
ATOM     31  C   UNL     1      37.812  -3.696  17.146  0.00  0.00    +0.000 A 
ENDBRANCH  25  26
ENDBRANCH   9  25
TORSDOF 8
ENDMDL
MODEL 9
REMARK VINA RESULT:      -7.5      2.687      9.062
REMARK  Name = 
REMARK  8 active torsions:
REMARK  status: ('A' for Active; 'I' for Inactive)
REMARK    1  A    between atoms: O_2  and  C_3
REMARK    2  A    between atoms: C_7  and  C_8
REMARK    3  A    between atoms: N_9  and  N_10
REMARK    4  A    between atoms: C_11  and  C_13
REMARK    5  A    between atoms: C_13  and  S_14
REMARK    6  A    between atoms: S_14  and  C_15
REMARK    7  A    between atoms: N_23  and  C_24
REMARK    8  A    between atoms: C_24  and  C_25
REMARK                            x       y       z     vdW  Elec       q    Type
REMARK                         _______ _______ _______ _____ _____    ______ ____
ROOT
ATOM      1  C   UNL     1      38.445   7.080  16.981  0.00  0.00    +0.000 A 
ATOM      2  N   UNL     1      37.806   8.275  16.882  0.00  0.00    +0.000 NA
ATOM      3  C   UNL     1      37.833   8.932  18.059  0.00  0.00    +0.000 A 
ATOM      4  C   UNL     1      37.351  10.146  18.504  0.00  0.00    +0.000 A 
ATOM      5  C   UNL     1      37.552  10.534  19.805  0.00  0.00    +0.000 A 
ATOM      6  C   UNL     1      38.234   9.712  20.665  0.00  0.00    +0.000 A 
ATOM      7  C   UNL     1      38.710   8.504  20.207  0.00  0.00    +0.000 A 
ATOM      8  C   UNL     1      38.532   8.074  18.918  0.00  0.00    +0.000 A 
ATOM      9  N   UNL     1      38.887   6.972  18.241  0.00  0.00    +0.000 N 
ENDROOT
BRANCH   1  10
ATOM     10  S   UNL     1      38.653   5.881  15.662  0.00  0.00    +0.000 S 
BRANCH  10  11
ATOM     11  C   UNL     1      37.250   4.746  15.663  0.00  0.00    +0.000 C 
BRANCH  11  13
ATOM     12  N   UNL     1      36.919   2.209  15.673  0.00  0.00    +0.000 NA
ATOM     13  C   UNL     1      37.745   3.347  15.648  0.00  0.00    +0.000 C 
ATOM     14  O   UNL     1      38.998   3.162  15.611  0.00  0.00    +0.000 OA
BRANCH  12  16
ATOM     15  C   UNL     1      36.794   0.038  16.375  0.00  0.00    +0.000 C 
ATOM     16  N   UNL     1      37.439   0.890  15.657  0.00  0.00    +0.000 NA
BRANCH  15  21
ATOM     17  C   UNL     1      38.910  -3.072  16.261  0.00  0.00    +0.000 A 
ATOM     18  C   UNL     1      38.016  -4.050  16.632  0.00  0.00    +0.000 A 
ATOM     19  C   UNL     1      36.721  -3.672  16.915  0.00  0.00    +0.000 A 
ATOM     20  C   UNL     1      36.313  -2.356  16.837  0.00  0.00    +0.000 A 
ATOM     21  C   UNL     1      37.205  -1.372  16.466  0.00  0.00    +0.000 A 
ATOM     22  C   UNL     1      38.486  -1.762  16.188  0.00  0.00    +0.000 A 
BRANCH  17  24
ATOM     23  C   UNL     1      40.898  -2.775  14.887  0.00  0.00    +0.000 C 
ATOM     24  O   UNL     1      40.242  -3.413  15.962  0.00  0.00    +0.000 OA
ENDBRANCH  17  24
ENDBRANCH  15  21
ENDBRANCH  12  16
ENDBRANCH  11  13
ENDBRANCH  10  11
ENDBRANCH   1  10
BRANCH   9  25
ATOM     25  C   UNL     1      39.623   5.872  18.816  0.00  0.00    +0.000 C 
BRANCH  25  26
ATOM     26  C   UNL     1      41.051   6.218  19.017  0.00  0.00    +0.000 A 
ATOM     27  C   UNL     1      41.589   6.312  20.284  0.00  0.00    +0.000 A 
ATOM     28  C   UNL     1      42.925   6.634  20.489  0.00  0.00    +0.000 A 
ATOM     29  C   UNL     1      43.761   6.874  19.423  0.00  0.00    +0.000 A 
ATOM     30  C   UNL     1      43.237   6.784  18.150  0.00  0.00    +0.000 A 
ATOM     31  C   UNL     1      41.893   6.459  17.954  0.00  0.00    +0.000 A 
ENDBRANCH  25  26
ENDBRANCH   9  25
TORSDOF 8
ENDMDL
MODEL 10
REMARK VINA RESULT:      -7.5      2.091      2.469
REMARK  Name = 
REMARK  8 active torsions:
REMARK  status: ('A' for Active; 'I' for Inactive)
REMARK    1  A    between atoms: O_2  and  C_3
REMARK    2  A    between atoms: C_7  and  C_8
REMARK    3  A    between atoms: N_9  and  N_10
REMARK    4  A    between atoms: C_11  and  C_13
REMARK    5  A    between atoms: C_13  and  S_14
REMARK    6  A    between atoms: S_14  and  C_15
REMARK    7  A    between atoms: N_23  and  C_24
REMARK    8  A    between atoms: C_24  and  C_25
REMARK                            x       y       z     vdW  Elec       q    Type
REMARK                         _______ _______ _______ _____ _____    ______ ____
ROOT
ATOM      1  C   UNL     1      37.064   0.601  14.756  0.00  0.00    +0.000 A 
ATOM      2  N   UNL     1      36.237   0.815  15.812  0.00  0.00    +0.000 NA
ATOM      3  C   UNL     1      35.597  -0.321  16.158  0.00  0.00    +0.000 A 
ATOM      4  C   UNL     1      34.676  -0.658  17.128  0.00  0.00    +0.000 A 
ATOM      5  C   UNL     1      34.207  -1.945  17.217  0.00  0.00    +0.000 A 
ATOM      6  C   UNL     1      34.657  -2.898  16.339  0.00  0.00    +0.000 A 
ATOM      7  C   UNL     1      35.577  -2.546  15.377  0.00  0.00    +0.000 A 
ATOM      8  C   UNL     1      36.072  -1.275  15.250  0.00  0.00    +0.000 A 
ATOM      9  N   UNL     1      36.951  -0.691  14.422  0.00  0.00    +0.000 N 
ENDROOT
BRANCH   1  10
ATOM     10  S   UNL     1      38.108   1.830  13.966  0.00  0.00    +0.000 S 
BRANCH  10  11
ATOM     11  C   UNL     1      37.224   3.401  13.890  0.00  0.00    +0.000 C 
BRANCH  11  13
ATOM     12  N   UNL     1      38.215   3.695  16.230  0.00  0.00    +0.000 NA
ATOM     13  C   UNL     1      37.487   4.176  15.127  0.00  0.00    +0.000 C 
ATOM     14  O   UNL     1      37.024   5.354  15.198  0.00  0.00    +0.000 OA
BRANCH  12  16
ATOM     15  C   UNL     1      39.485   5.228  17.355  0.00  0.00    +0.000 C 
ATOM     16  N   UNL     1      38.440   4.476  17.393  0.00  0.00    +0.000 NA
BRANCH  15  21
ATOM     17  C   UNL     1      41.551   7.055  19.915  0.00  0.00    +0.000 A 
ATOM     18  C   UNL     1      40.595   7.750  20.622  0.00  0.00    +0.000 A 
ATOM     19  C   UNL     1      39.277   7.606  20.245  0.00  0.00    +0.000 A 
ATOM     20  C   UNL     1      38.905   6.796  19.192  0.00  0.00    +0.000 A 
ATOM     21  C   UNL     1      39.858   6.098  18.481  0.00  0.00    +0.000 A 
ATOM     22  C   UNL     1      41.161   6.250  18.866  0.00  0.00    +0.000 A 
BRANCH  17  24
ATOM     23  C   UNL     1      43.417   6.404  21.336  0.00  0.00    +0.000 C 
ATOM     24  O   UNL     1      42.908   7.171  20.266  0.00  0.00    +0.000 OA
ENDBRANCH  17  24
ENDBRANCH  15  21
ENDBRANCH  12  16
ENDBRANCH  11  13
ENDBRANCH  10  11
ENDBRANCH   1  10
BRANCH   9  25
ATOM     25  C   UNL     1      37.639  -1.380  13.356  0.00  0.00    +0.000 C 
BRANCH  25  26
ATOM     26  C   UNL     1      39.042  -1.689  13.725  0.00  0.00    +0.000 A 
ATOM     27  C   UNL     1      39.333  -2.484  14.813  0.00  0.00    +0.000 A 
ATOM     28  C   UNL     1      40.642  -2.784  15.171  0.00  0.00    +0.000 A 
ATOM     29  C   UNL     1      41.700  -2.289  14.443  0.00  0.00    +0.000 A 
ATOM     30  C   UNL     1      41.424  -1.492  13.352  0.00  0.00    +0.000 A 
ATOM     31  C   UNL     1      40.105  -1.197  13.000  0.00  0.00    +0.000 A 
ENDBRANCH  25  26
ENDBRANCH   9  25
TORSDOF 8
ENDMDL
