MODEL 1
REMARK VINA RESULT:      -7.3      0.000      0.000
REMARK  Name = 
REMARK  8 active torsions:
REMARK  status: ('A' for Active; 'I' for Inactive)
REMARK    1  A    between atoms: C_2  and  C_3
REMARK    2  A    between atoms: C_3  and  O_4
REMARK    3  A    between atoms: O_4  and  C_5
REMARK    4  A    between atoms: C_5  and  C_7
REMARK    5  A    between atoms: N_10  and  C_11
REMARK    6  A    between atoms: C_11  and  C_12
REMARK    7  A    between atoms: C_12  and  C_13
REMARK    8  A    between atoms: C_16  and  O_17
REMARK                            x       y       z     vdW  Elec       q    Type
REMARK                         _______ _______ _______ _____ _____    ______ ____
ROOT
ATOM      1  C   UNL     1      37.692   2.599  15.379  0.00  0.00    +0.000 A 
ATOM      2  C   UNL     1      36.495   2.064  15.776  0.00  0.00    +0.000 A 
ATOM      3  N   UNL     1      35.380   2.824  16.194  0.00  0.00    +0.000 NA
ATOM      4  N   UNL     1      36.564   0.740  15.712  0.00  0.00    +0.000 N 
ATOM      5  C   UNL     1      37.815   0.422  15.271  0.00  0.00    +0.000 A 
ATOM      6  N   UNL     1      38.416  -0.758  15.027  0.00  0.00    +0.000 NA
ATOM      7  C   UNL     1      39.700  -0.829  14.581  0.00  0.00    +0.000 A 
ATOM      8  C   UNL     1      40.312  -2.039  14.333  0.00  0.00    +0.000 A 
ATOM      9  C   UNL     1      41.616  -2.138  13.879  0.00  0.00    +0.000 A 
ATOM     10  C   UNL     1      42.338  -0.979  13.666  0.00  0.00    +0.000 A 
ATOM     11  C   UNL     1      41.742   0.259  13.910  0.00  0.00    +0.000 A 
ATOM     12  C   UNL     1      40.428   0.321  14.366  0.00  0.00    +0.000 A 
ATOM     13  N   UNL     1      39.822   1.501  14.611  0.00  0.00    +0.000 NA
ATOM     14  C   UNL     1      38.551   1.565  15.052  0.00  0.00    +0.000 A 
ENDROOT
BRANCH   1  15
ATOM     15  C   UNL     1      38.037   4.003  15.305  0.00  0.00    +0.000 C 
ATOM     16  O   UNL     1      37.706   4.677  14.296  0.00  0.00    +0.000 OA
BRANCH  15  17
ATOM     17  O   UNL     1      38.728   4.668  16.307  0.00  0.00    +0.000 OA
BRANCH  17  18
ATOM     18  C   UNL     1      38.350   4.740  17.647  0.00  0.00    +0.000 C 
BRANCH  18  20
ATOM     19  C   UNL     1      39.155   6.438  19.172  0.00  0.00    +0.000 C 
ATOM     20  C   UNL     1      39.390   5.316  18.517  0.00  0.00    +0.000 C 
ENDBRANCH  18  20
ENDBRANCH  17  18
ENDBRANCH  15  17
ENDBRANCH   1  15
BRANCH   4  21
ATOM     21  C   UNL     1      35.495  -0.175  16.042  0.00  0.00    +0.000 C 
BRANCH  21  22
ATOM     22  C   UNL     1      35.534  -0.470  17.506  0.00  0.00    +0.000 C 
BRANCH  22  23
ATOM     23  C   UNL     1      36.465  -1.579  17.789  0.00  0.00    +0.000 A 
ATOM     24  C   UNL     1      37.396  -1.486  18.815  0.00  0.00    +0.000 A 
ATOM     25  C   UNL     1      38.264  -2.541  19.068  0.00  0.00    +0.000 A 
ATOM     26  C   UNL     1      38.243  -3.705  18.330  0.00  0.00    +0.000 A 
ATOM     27  C   UNL     1      37.322  -3.806  17.309  0.00  0.00    +0.000 A 
ATOM     28  C   UNL     1      36.463  -2.760  17.060  0.00  0.00    +0.000 A 
BRANCH  26  29
ATOM     29  O   UNL     1      39.128  -4.752  18.605  0.00  0.00    +0.000 OA
ATOM     30  C   UNL     1      39.181  -5.266  19.924  0.00  0.00    +0.000 C 
ENDBRANCH  26  29
ENDBRANCH  22  23
ENDBRANCH  21  22
ENDBRANCH   4  21
TORSDOF 8
ENDMDL
MODEL 2
REMARK VINA RESULT:      -7.2      1.887      6.343
REMARK  Name = 
REMARK  8 active torsions:
REMARK  status: ('A' for Active; 'I' for Inactive)
REMARK    1  A    between atoms: C_2  and  C_3
REMARK    2  A    between atoms: C_3  and  O_4
REMARK    3  A    between atoms: O_4  and  C_5
REMARK    4  A    between atoms: C_5  and  C_7
REMARK    5  A    between atoms: N_10  and  C_11
REMARK    6  A    between atoms: C_11  and  C_12
REMARK    7  A    between atoms: C_12  and  C_13
REMARK    8  A    between atoms: C_16  and  O_17
REMARK                            x       y       z     vdW  Elec       q    Type
REMARK                         _______ _______ _______ _____ _____    ______ ____
ROOT
ATOM      1  C   UNL     1      36.634  -0.634  16.126  0.00  0.00    +0.000 A 
ATOM      2  C   UNL     1      36.184   0.660  16.161  0.00  0.00    +0.000 A 
ATOM      3  N   UNL     1      34.911   1.050  16.635  0.00  0.00    +0.000 NA
ATOM      4  N   UNL     1      37.121   1.464  15.677  0.00  0.00    +0.000 N 
ATOM      5  C   UNL     1      38.181   0.681  15.326  0.00  0.00    +0.000 A 
ATOM      6  N   UNL     1      39.383   0.972  14.791  0.00  0.00    +0.000 NA
ATOM      7  C   UNL     1      40.301   0.003  14.523  0.00  0.00    +0.000 A 
ATOM      8  C   UNL     1      41.529   0.303  13.976  0.00  0.00    +0.000 A 
ATOM      9  C   UNL     1      42.479  -0.664  13.694  0.00  0.00    +0.000 A 
ATOM     10  C   UNL     1      42.187  -1.986  13.970  0.00  0.00    +0.000 A 
ATOM     11  C   UNL     1      40.950  -2.317  14.524  0.00  0.00    +0.000 A 
ATOM     12  C   UNL     1      40.019  -1.319  14.794  0.00  0.00    +0.000 A 
ATOM     13  N   UNL     1      38.814  -1.605  15.330  0.00  0.00    +0.000 NA
ATOM     14  C   UNL     1      37.911  -0.642  15.594  0.00  0.00    +0.000 A 
ENDROOT
BRANCH   1  15
ATOM     15  C   UNL     1      35.920  -1.816  16.558  0.00  0.00    +0.000 C 
ATOM     16  O   UNL     1      35.136  -2.400  15.766  0.00  0.00    +0.000 OA
BRANCH  15  17
ATOM     17  O   UNL     1      36.052  -2.360  17.828  0.00  0.00    +0.000 OA
BRANCH  17  18
ATOM     18  C   UNL     1      36.694  -1.758  18.909  0.00  0.00    +0.000 C 
BRANCH  18  20
ATOM     19  C   UNL     1      38.556  -3.247  18.493  0.00  0.00    +0.000 C 
ATOM     20  C   UNL     1      37.902  -2.480  19.346  0.00  0.00    +0.000 C 
ENDBRANCH  18  20
ENDBRANCH  17  18
ENDBRANCH  15  17
ENDBRANCH   1  15
BRANCH   4  21
ATOM     21  C   UNL     1      37.020   2.902  15.562  0.00  0.00    +0.000 C 
BRANCH  21  22
ATOM     22  C   UNL     1      37.100   3.510  16.923  0.00  0.00    +0.000 C 
BRANCH  22  23
ATOM     23  C   UNL     1      38.243   4.440  17.012  0.00  0.00    +0.000 A 
ATOM     24  C   UNL     1      38.906   4.867  15.870  0.00  0.00    +0.000 A 
ATOM     25  C   UNL     1      39.980   5.743  15.973  0.00  0.00    +0.000 A 
ATOM     26  C   UNL     1      40.428   6.220  17.185  0.00  0.00    +0.000 A 
ATOM     27  C   UNL     1      39.775   5.800  18.325  0.00  0.00    +0.000 A 
ATOM     28  C   UNL     1      38.712   4.933  18.222  0.00  0.00    +0.000 A 
BRANCH  26  29
ATOM     29  O   UNL     1      41.511   7.101  17.262  0.00  0.00    +0.000 OA
ATOM     30  C   UNL     1      42.820   6.581  17.122  0.00  0.00    +0.000 C 
ENDBRANCH  26  29
ENDBRANCH  22  23
ENDBRANCH  21  22
ENDBRANCH   4  21
TORSDOF 8
ENDMDL
MODEL 3
REMARK VINA RESULT:      -7.1      2.428      6.879
REMARK  Name = 
REMARK  8 active torsions:
REMARK  status: ('A' for Active; 'I' for Inactive)
REMARK    1  A    between atoms: C_2  and  C_3
REMARK    2  A    between atoms: C_3  and  O_4
REMARK    3  A    between atoms: O_4  and  C_5
REMARK    4  A    between atoms: C_5  and  C_7
REMARK    5  A    between atoms: N_10  and  C_11
REMARK    6  A    between atoms: C_11  and  C_12
REMARK    7  A    between atoms: C_12  and  C_13
REMARK    8  A    between atoms: C_16  and  O_17
REMARK                            x       y       z     vdW  Elec       q    Type
REMARK                         _______ _______ _______ _____ _____    ______ ____
ROOT
ATOM      1  C   UNL     1      36.242  -0.632  16.046  0.00  0.00    +0.000 A 
ATOM      2  C   UNL     1      35.847   0.671  16.196  0.00  0.00    +0.000 A 
ATOM      3  N   UNL     1      34.575   1.071  16.664  0.00  0.00    +0.000 NA
ATOM      4  N   UNL     1      36.834   1.475  15.824  0.00  0.00    +0.000 N 
ATOM      5  C   UNL     1      37.873   0.682  15.432  0.00  0.00    +0.000 A 
ATOM      6  N   UNL     1      39.105   0.968  14.968  0.00  0.00    +0.000 NA
ATOM      7  C   UNL     1      39.990  -0.012  14.635  0.00  0.00    +0.000 A 
ATOM      8  C   UNL     1      41.249   0.284  14.160  0.00  0.00    +0.000 A 
ATOM      9  C   UNL     1      42.167  -0.694  13.814  0.00  0.00    +0.000 A 
ATOM     10  C   UNL     1      41.808  -2.022  13.948  0.00  0.00    +0.000 A 
ATOM     11  C   UNL     1      40.539  -2.348  14.426  0.00  0.00    +0.000 A 
ATOM     12  C   UNL     1      39.642  -1.339  14.764  0.00  0.00    +0.000 A 
ATOM     13  N   UNL     1      38.407  -1.621  15.229  0.00  0.00    +0.000 NA
ATOM     14  C   UNL     1      37.536  -0.648  15.558  0.00  0.00    +0.000 A 
ENDROOT
BRANCH   1  15
ATOM     15  C   UNL     1      35.463  -1.817  16.336  0.00  0.00    +0.000 C 
ATOM     16  O   UNL     1      35.244  -2.146  17.530  0.00  0.00    +0.000 OA
BRANCH  15  17
ATOM     17  O   UNL     1      34.929  -2.634  15.350  0.00  0.00    +0.000 OA
BRANCH  17  18
ATOM     18  C   UNL     1      35.295  -3.956  15.101  0.00  0.00    +0.000 C 
BRANCH  18  20
ATOM     19  C   UNL     1      32.933  -4.467  15.224  0.00  0.00    +0.000 C 
ATOM     20  C   UNL     1      34.146  -4.845  14.862  0.00  0.00    +0.000 C 
ENDBRANCH  18  20
ENDBRANCH  17  18
ENDBRANCH  15  17
ENDBRANCH   1  15
BRANCH   4  21
ATOM     21  C   UNL     1      36.800   2.920  15.849  0.00  0.00    +0.000 C 
BRANCH  21  22
ATOM     22  C   UNL     1      37.101   3.394  17.233  0.00  0.00    +0.000 C 
BRANCH  22  23
ATOM     23  C   UNL     1      38.225   4.351  17.223  0.00  0.00    +0.000 A 
ATOM     24  C   UNL     1      38.811   4.751  16.030  0.00  0.00    +0.000 A 
ATOM     25  C   UNL     1      39.868   5.653  16.039  0.00  0.00    +0.000 A 
ATOM     26  C   UNL     1      40.373   6.183  17.206  0.00  0.00    +0.000 A 
ATOM     27  C   UNL     1      39.796   5.792  18.396  0.00  0.00    +0.000 A 
ATOM     28  C   UNL     1      38.750   4.898  18.385  0.00  0.00    +0.000 A 
BRANCH  26  29
ATOM     29  O   UNL     1      41.437   7.090  17.188  0.00  0.00    +0.000 OA
ATOM     30  C   UNL     1      42.754   6.588  17.053  0.00  0.00    +0.000 C 
ENDBRANCH  26  29
ENDBRANCH  22  23
ENDBRANCH  21  22
ENDBRANCH   4  21
TORSDOF 8
ENDMDL
MODEL 4
REMARK VINA RESULT:      -7.1      2.864      7.684
REMARK  Name = 
REMARK  8 active torsions:
REMARK  status: ('A' for Active; 'I' for Inactive)
REMARK    1  A    between atoms: C_2  and  C_3
REMARK    2  A    between atoms: C_3  and  O_4
REMARK    3  A    between atoms: O_4  and  C_5
REMARK    4  A    between atoms: C_5  and  C_7
REMARK    5  A    between atoms: N_10  and  C_11
REMARK    6  A    between atoms: C_11  and  C_12
REMARK    7  A    between atoms: C_12  and  C_13
REMARK    8  A    between atoms: C_16  and  O_17
REMARK                            x       y       z     vdW  Elec       q    Type
REMARK                         _______ _______ _______ _____ _____    ______ ____
ROOT
ATOM      1  C   UNL     1      39.141   2.570  14.240  0.00  0.00    +0.000 A 
ATOM      2  C   UNL     1      39.242   3.803  14.829  0.00  0.00    +0.000 A 
ATOM      3  N   UNL     1      40.145   4.811  14.422  0.00  0.00    +0.000 NA
ATOM      4  N   UNL     1      38.376   3.884  15.831  0.00  0.00    +0.000 N 
ATOM      5  C   UNL     1      37.712   2.693  15.887  0.00  0.00    +0.000 A 
ATOM      6  N   UNL     1      36.740   2.236  16.699  0.00  0.00    +0.000 NA
ATOM      7  C   UNL     1      36.220   0.986  16.561  0.00  0.00    +0.000 A 
ATOM      8  C   UNL     1      35.226   0.521  17.394  0.00  0.00    +0.000 A 
ATOM      9  C   UNL     1      34.681  -0.747  17.274  0.00  0.00    +0.000 A 
ATOM     10  C   UNL     1      35.152  -1.583  16.280  0.00  0.00    +0.000 A 
ATOM     11  C   UNL     1      36.159  -1.137  15.424  0.00  0.00    +0.000 A 
ATOM     12  C   UNL     1      36.684   0.143  15.573  0.00  0.00    +0.000 A 
ATOM     13  N   UNL     1      37.658   0.606  14.762  0.00  0.00    +0.000 NA
ATOM     14  C   UNL     1      38.167   1.844  14.903  0.00  0.00    +0.000 A 
ENDROOT
BRANCH   1  15
ATOM     15  C   UNL     1      39.908   2.076  13.118  0.00  0.00    +0.000 C 
ATOM     16  O   UNL     1      39.559   2.365  11.944  0.00  0.00    +0.000 OA
BRANCH  15  17
ATOM     17  O   UNL     1      41.036   1.281  13.261  0.00  0.00    +0.000 OA
BRANCH  17  18
ATOM     18  C   UNL     1      41.122  -0.075  12.946  0.00  0.00    +0.000 C 
BRANCH  18  20
ATOM     19  C   UNL     1      40.439  -1.399  14.854  0.00  0.00    +0.000 C 
ATOM     20  C   UNL     1      41.424  -0.926  14.110  0.00  0.00    +0.000 C 
ENDBRANCH  18  20
ENDBRANCH  17  18
ENDBRANCH  15  17
ENDBRANCH   1  15
BRANCH   4  21
ATOM     21  C   UNL     1      38.179   5.035  16.684  0.00  0.00    +0.000 C 
BRANCH  21  22
ATOM     22  C   UNL     1      38.941   4.841  17.954  0.00  0.00    +0.000 C 
BRANCH  22  23
ATOM     23  C   UNL     1      39.015   6.104  18.715  0.00  0.00    +0.000 A 
ATOM     24  C   UNL     1      38.135   7.145  18.457  0.00  0.00    +0.000 A 
ATOM     25  C   UNL     1      38.219   8.326  19.184  0.00  0.00    +0.000 A 
ATOM     26  C   UNL     1      39.158   8.517  20.174  0.00  0.00    +0.000 A 
ATOM     27  C   UNL     1      40.037   7.487  20.436  0.00  0.00    +0.000 A 
ATOM     28  C   UNL     1      39.953   6.318  19.715  0.00  0.00    +0.000 A 
BRANCH  26  29
ATOM     29  O   UNL     1      39.221   9.715  20.891  0.00  0.00    +0.000 OA
ATOM     30  C   UNL     1      38.261  10.720  20.620  0.00  0.00    +0.000 C 
ENDBRANCH  26  29
ENDBRANCH  22  23
ENDBRANCH  21  22
ENDBRANCH   4  21
TORSDOF 8
ENDMDL
MODEL 5
REMARK VINA RESULT:      -6.9      3.234      7.336
REMARK  Name = 
REMARK  8 active torsions:
REMARK  status: ('A' for Active; 'I' for Inactive)
REMARK    1  A    between atoms: C_2  and  C_3
REMARK    2  A    between atoms: C_3  and  O_4
REMARK    3  A    between atoms: O_4  and  C_5
REMARK    4  A    between atoms: C_5  and  C_7
REMARK    5  A    between atoms: N_10  and  C_11
REMARK    6  A    between atoms: C_11  and  C_12
REMARK    7  A    between atoms: C_12  and  C_13
REMARK    8  A    between atoms: C_16  and  O_17
REMARK                            x       y       z     vdW  Elec       q    Type
REMARK                         _______ _______ _______ _____ _____    ______ ____
ROOT
ATOM      1  C   UNL     1      38.483  -1.987  16.401  0.00  0.00    +0.000 A 
ATOM      2  C   UNL     1      39.546  -2.125  15.548  0.00  0.00    +0.000 A 
ATOM      3  N   UNL     1      40.494  -3.170  15.616  0.00  0.00    +0.000 NA
ATOM      4  N   UNL     1      39.541  -1.127  14.674  0.00  0.00    +0.000 N 
ATOM      5  C   UNL     1      38.466  -0.340  14.967  0.00  0.00    +0.000 A 
ATOM      6  N   UNL     1      37.991   0.789  14.407  0.00  0.00    +0.000 NA
ATOM      7  C   UNL     1      36.875   1.409  14.882  0.00  0.00    +0.000 A 
ATOM      8  C   UNL     1      36.392   2.565  14.307  0.00  0.00    +0.000 A 
ATOM      9  C   UNL     1      35.261   3.215  14.770  0.00  0.00    +0.000 A 
ATOM     10  C   UNL     1      34.586   2.687  15.855  0.00  0.00    +0.000 A 
ATOM     11  C   UNL     1      35.055   1.518  16.455  0.00  0.00    +0.000 A 
ATOM     12  C   UNL     1      36.196   0.891  15.963  0.00  0.00    +0.000 A 
ATOM     13  N   UNL     1      36.675  -0.241  16.520  0.00  0.00    +0.000 NA
ATOM     14  C   UNL     1      37.778  -0.850  16.046  0.00  0.00    +0.000 A 
ENDROOT
BRANCH   1  15
ATOM     15  C   UNL     1      38.128  -2.859  17.499  0.00  0.00    +0.000 C 
ATOM     16  O   UNL     1      38.697  -2.726  18.613  0.00  0.00    +0.000 OA
BRANCH  15  17
ATOM     17  O   UNL     1      37.174  -3.860  17.395  0.00  0.00    +0.000 OA
BRANCH  17  18
ATOM     18  C   UNL     1      37.148  -4.863  16.428  0.00  0.00    +0.000 C 
BRANCH  18  20
ATOM     19  C   UNL     1      35.870  -3.862  14.633  0.00  0.00    +0.000 C 
ATOM     20  C   UNL     1      35.962  -4.803  15.555  0.00  0.00    +0.000 C 
ENDBRANCH  18  20
ENDBRANCH  17  18
ENDBRANCH  15  17
ENDBRANCH   1  15
BRANCH   4  21
ATOM     21  C   UNL     1      40.500  -0.934  13.609  0.00  0.00    +0.000 C 
BRANCH  21  22
ATOM     22  C   UNL     1      41.611  -0.065  14.099  0.00  0.00    +0.000 C 
BRANCH  22  23
ATOM     23  C   UNL     1      42.882  -0.815  14.135  0.00  0.00    +0.000 A 
ATOM     24  C   UNL     1      43.067  -1.945  13.351  0.00  0.00    +0.000 A 
ATOM     25  C   UNL     1      44.270  -2.638  13.397  0.00  0.00    +0.000 A 
ATOM     26  C   UNL     1      45.315  -2.245  14.205  0.00  0.00    +0.000 A 
ATOM     27  C   UNL     1      45.140  -1.123  14.987  0.00  0.00    +0.000 A 
ATOM     28  C   UNL     1      43.948  -0.438  14.941  0.00  0.00    +0.000 A 
BRANCH  26  29
ATOM     29  O   UNL     1      46.517  -2.960  14.233  0.00  0.00    +0.000 OA
ATOM     30  C   UNL     1      46.635  -4.054  15.124  0.00  0.00    +0.000 C 
ENDBRANCH  26  29
ENDBRANCH  22  23
ENDBRANCH  21  22
ENDBRANCH   4  21
TORSDOF 8
ENDMDL
MODEL 6
REMARK VINA RESULT:      -6.9      1.326      2.035
REMARK  Name = 
REMARK  8 active torsions:
REMARK  status: ('A' for Active; 'I' for Inactive)
REMARK    1  A    between atoms: C_2  and  C_3
REMARK    2  A    between atoms: C_3  and  O_4
REMARK    3  A    between atoms: O_4  and  C_5
REMARK    4  A    between atoms: C_5  and  C_7
REMARK    5  A    between atoms: N_10  and  C_11
REMARK    6  A    between atoms: C_11  and  C_12
REMARK    7  A    between atoms: C_12  and  C_13
REMARK    8  A    between atoms: C_16  and  O_17
REMARK                            x       y       z     vdW  Elec       q    Type
REMARK                         _______ _______ _______ _____ _____    ______ ____
ROOT
ATOM      1  C   UNL     1      38.477   3.284  14.622  0.00  0.00    +0.000 A 
ATOM      2  C   UNL     1      37.118   3.230  14.794  0.00  0.00    +0.000 A 
ATOM      3  N   UNL     1      36.281   4.363  14.899  0.00  0.00    +0.000 NA
ATOM      4  N   UNL     1      36.733   1.962  14.853  0.00  0.00    +0.000 N 
ATOM      5  C   UNL     1      37.853   1.194  14.719  0.00  0.00    +0.000 A 
ATOM      6  N   UNL     1      38.040  -0.140  14.707  0.00  0.00    +0.000 NA
ATOM      7  C   UNL     1      39.276  -0.688  14.556  0.00  0.00    +0.000 A 
ATOM      8  C   UNL     1      39.464  -2.053  14.544  0.00  0.00    +0.000 A 
ATOM      9  C   UNL     1      40.711  -2.636  14.392  0.00  0.00    +0.000 A 
ATOM     10  C   UNL     1      41.815  -1.818  14.246  0.00  0.00    +0.000 A 
ATOM     11  C   UNL     1      41.653  -0.432  14.255  0.00  0.00    +0.000 A 
ATOM     12  C   UNL     1      40.384   0.118  14.410  0.00  0.00    +0.000 A 
ATOM     13  N   UNL     1      40.192   1.454  14.423  0.00  0.00    +0.000 NA
ATOM     14  C   UNL     1      38.967   1.991  14.572  0.00  0.00    +0.000 A 
ENDROOT
BRANCH   1  15
ATOM     15  C   UNL     1      39.294   4.473  14.511  0.00  0.00    +0.000 C 
ATOM     16  O   UNL     1      39.512   4.980  13.381  0.00  0.00    +0.000 OA
BRANCH  15  17
ATOM     17  O   UNL     1      39.867   5.105  15.606  0.00  0.00    +0.000 OA
BRANCH  17  18
ATOM     18  C   UNL     1      39.308   6.164  16.318  0.00  0.00    +0.000 C 
BRANCH  18  20
ATOM     19  C   UNL     1      38.886   4.870  18.320  0.00  0.00    +0.000 C 
ATOM     20  C   UNL     1      38.435   5.729  17.423  0.00  0.00    +0.000 C 
ENDBRANCH  18  20
ENDBRANCH  17  18
ENDBRANCH  15  17
ENDBRANCH   1  15
BRANCH   4  21
ATOM     21  C   UNL     1      35.373   1.501  15.018  0.00  0.00    +0.000 C 
BRANCH  21  22
ATOM     22  C   UNL     1      34.970   1.661  16.448  0.00  0.00    +0.000 C 
BRANCH  22  23
ATOM     23  C   UNL     1      35.575   0.603  17.281  0.00  0.00    +0.000 A 
ATOM     24  C   UNL     1      35.568  -0.722  16.868  0.00  0.00    +0.000 A 
ATOM     25  C   UNL     1      36.143  -1.704  17.665  0.00  0.00    +0.000 A 
ATOM     26  C   UNL     1      36.736  -1.417  18.875  0.00  0.00    +0.000 A 
ATOM     27  C   UNL     1      36.748  -0.103  19.293  0.00  0.00    +0.000 A 
ATOM     28  C   UNL     1      36.177   0.869  18.503  0.00  0.00    +0.000 A 
BRANCH  26  29
ATOM     29  O   UNL     1      37.309  -2.424  19.658  0.00  0.00    +0.000 OA
ATOM     30  C   UNL     1      38.456  -3.094  19.168  0.00  0.00    +0.000 C 
ENDBRANCH  26  29
ENDBRANCH  22  23
ENDBRANCH  21  22
ENDBRANCH   4  21
TORSDOF 8
ENDMDL
MODEL 7
REMARK VINA RESULT:      -6.8      2.787      7.195
REMARK  Name = 
REMARK  8 active torsions:
REMARK  status: ('A' for Active; 'I' for Inactive)
REMARK    1  A    between atoms: C_2  and  C_3
REMARK    2  A    between atoms: C_3  and  O_4
REMARK    3  A    between atoms: O_4  and  C_5
REMARK    4  A    between atoms: C_5  and  C_7
REMARK    5  A    between atoms: N_10  and  C_11
REMARK    6  A    between atoms: C_11  and  C_12
REMARK    7  A    between atoms: C_12  and  C_13
REMARK    8  A    between atoms: C_16  and  O_17
REMARK                            x       y       z     vdW  Elec       q    Type
REMARK                         _______ _______ _______ _____ _____    ______ ____
ROOT
ATOM      1  C   UNL     1      39.368   1.783  14.138  0.00  0.00    +0.000 A 
ATOM      2  C   UNL     1      39.416   3.119  14.440  0.00  0.00    +0.000 A 
ATOM      3  N   UNL     1      40.385   4.016  13.938  0.00  0.00    +0.000 NA
ATOM      4  N   UNL     1      38.428   3.417  15.273  0.00  0.00    +0.000 N 
ATOM      5  C   UNL     1      37.739   2.263  15.510  0.00  0.00    +0.000 A 
ATOM      6  N   UNL     1      36.659   1.993  16.269  0.00  0.00    +0.000 NA
ATOM      7  C   UNL     1      36.137   0.739  16.350  0.00  0.00    +0.000 A 
ATOM      8  C   UNL     1      35.032   0.466  17.128  0.00  0.00    +0.000 A 
ATOM      9  C   UNL     1      34.483  -0.801  17.228  0.00  0.00    +0.000 A 
ATOM     10  C   UNL     1      35.063  -1.837  16.522  0.00  0.00    +0.000 A 
ATOM     11  C   UNL     1      36.182  -1.587  15.727  0.00  0.00    +0.000 A 
ATOM     12  C   UNL     1      36.708  -0.301  15.650  0.00  0.00    +0.000 A 
ATOM     13  N   UNL     1      37.790  -0.026  14.891  0.00  0.00    +0.000 NA
ATOM     14  C   UNL     1      38.301   1.217  14.814  0.00  0.00    +0.000 A 
ENDROOT
BRANCH   1  15
ATOM     15  C   UNL     1      40.266   1.054  13.269  0.00  0.00    +0.000 C 
ATOM     16  O   UNL     1      39.908   0.768  12.097  0.00  0.00    +0.000 OA
BRANCH  15  17
ATOM     17  O   UNL     1      41.531   0.640  13.660  0.00  0.00    +0.000 OA
BRANCH  17  18
ATOM     18  C   UNL     1      41.869  -0.640  14.098  0.00  0.00    +0.000 C 
BRANCH  18  20
ATOM     19  C   UNL     1      40.629  -2.511  15.001  0.00  0.00    +0.000 C 
ATOM     20  C   UNL     1      40.741  -1.586  14.065  0.00  0.00    +0.000 C 
ENDBRANCH  18  20
ENDBRANCH  17  18
ENDBRANCH  15  17
ENDBRANCH   1  15
BRANCH   4  21
ATOM     21  C   UNL     1      38.145   4.729  15.809  0.00  0.00    +0.000 C 
BRANCH  21  22
ATOM     22  C   UNL     1      38.172   4.667  17.302  0.00  0.00    +0.000 C 
BRANCH  22  23
ATOM     23  C   UNL     1      39.329   5.416  17.832  0.00  0.00    +0.000 A 
ATOM     24  C   UNL     1      39.389   5.782  19.170  0.00  0.00    +0.000 A 
ATOM     25  C   UNL     1      40.486   6.486  19.652  0.00  0.00    +0.000 A 
ATOM     26  C   UNL     1      41.543   6.846  18.845  0.00  0.00    +0.000 A 
ATOM     27  C   UNL     1      41.491   6.486  17.515  0.00  0.00    +0.000 A 
ATOM     28  C   UNL     1      40.404   5.789  17.038  0.00  0.00    +0.000 A 
BRANCH  26  29
ATOM     29  O   UNL     1      42.635   7.553  19.355  0.00  0.00    +0.000 OA
ATOM     30  C   UNL     1      43.136   7.200  20.632  0.00  0.00    +0.000 C 
ENDBRANCH  26  29
ENDBRANCH  22  23
ENDBRANCH  21  22
ENDBRANCH   4  21
TORSDOF 8
ENDMDL
MODEL 8
REMARK VINA RESULT:      -6.7      1.376      2.198
REMARK  Name = 
REMARK  8 active torsions:
REMARK  status: ('A' for Active; 'I' for Inactive)
REMARK    1  A    between atoms: C_2  and  C_3
REMARK    2  A    between atoms: C_3  and  O_4
REMARK    3  A    between atoms: O_4  and  C_5
REMARK    4  A    between atoms: C_5  and  C_7
REMARK    5  A    between atoms: N_10  and  C_11
REMARK    6  A    between atoms: C_11  and  C_12
REMARK    7  A    between atoms: C_12  and  C_13
REMARK    8  A    between atoms: C_16  and  O_17
REMARK                            x       y       z     vdW  Elec       q    Type
REMARK                         _______ _______ _______ _____ _____    ______ ____
ROOT
ATOM      1  C   UNL     1      37.176   2.653  15.280  0.00  0.00    +0.000 A 
ATOM      2  C   UNL     1      36.043   2.044  15.753  0.00  0.00    +0.000 A 
ATOM      3  N   UNL     1      34.857   2.726  16.104  0.00  0.00    +0.000 NA
ATOM      4  N   UNL     1      36.250   0.736  15.835  0.00  0.00    +0.000 N 
ATOM      5  C   UNL     1      37.525   0.502  15.410  0.00  0.00    +0.000 A 
ATOM      6  N   UNL     1      38.245  -0.630  15.288  0.00  0.00    +0.000 NA
ATOM      7  C   UNL     1      39.527  -0.617  14.831  0.00  0.00    +0.000 A 
ATOM      8  C   UNL     1      40.262  -1.776  14.708  0.00  0.00    +0.000 A 
ATOM      9  C   UNL     1      41.567  -1.789  14.246  0.00  0.00    +0.000 A 
ATOM     10  C   UNL     1      42.162  -0.593  13.895  0.00  0.00    +0.000 A 
ATOM     11  C   UNL     1      41.441   0.596  14.011  0.00  0.00    +0.000 A 
ATOM     12  C   UNL     1      40.130   0.572  14.479  0.00  0.00    +0.000 A 
ATOM     13  N   UNL     1      39.405   1.703  14.603  0.00  0.00    +0.000 NA
ATOM     14  C   UNL     1      38.136   1.684  15.055  0.00  0.00    +0.000 A 
ENDROOT
BRANCH   1  15
ATOM     15  C   UNL     1      37.371   4.068  15.048  0.00  0.00    +0.000 C 
ATOM     16  O   UNL     1      37.843   4.793  15.960  0.00  0.00    +0.000 OA
BRANCH  15  17
ATOM     17  O   UNL     1      37.060   4.689  13.847  0.00  0.00    +0.000 OA
BRANCH  17  18
ATOM     18  C   UNL     1      35.775   4.920  13.358  0.00  0.00    +0.000 C 
BRANCH  18  20
ATOM     19  C   UNL     1      35.897   7.233  14.059  0.00  0.00    +0.000 C 
ATOM     20  C   UNL     1      35.467   6.349  13.177  0.00  0.00    +0.000 C 
ENDBRANCH  18  20
ENDBRANCH  17  18
ENDBRANCH  15  17
ENDBRANCH   1  15
BRANCH   4  21
ATOM     21  C   UNL     1      35.284  -0.243  16.281  0.00  0.00    +0.000 C 
BRANCH  21  22
ATOM     22  C   UNL     1      35.464  -0.480  17.745  0.00  0.00    +0.000 C 
BRANCH  22  23
ATOM     23  C   UNL     1      36.421  -1.579  17.981  0.00  0.00    +0.000 A 
ATOM     24  C   UNL     1      36.392  -2.730  17.205  0.00  0.00    +0.000 A 
ATOM     25  C   UNL     1      37.301  -3.754  17.441  0.00  0.00    +0.000 A 
ATOM     26  C   UNL     1      38.254  -3.678  18.433  0.00  0.00    +0.000 A 
ATOM     27  C   UNL     1      38.291  -2.538  19.208  0.00  0.00    +0.000 A 
ATOM     28  C   UNL     1      37.389  -1.525  18.973  0.00  0.00    +0.000 A 
BRANCH  26  29
ATOM     29  O   UNL     1      39.159  -4.722  18.650  0.00  0.00    +0.000 OA
ATOM     30  C   UNL     1      39.168  -5.359  19.915  0.00  0.00    +0.000 C 
ENDBRANCH  26  29
ENDBRANCH  22  23
ENDBRANCH  21  22
ENDBRANCH   4  21
TORSDOF 8
ENDMDL
MODEL 9
REMARK VINA RESULT:      -6.6      2.554      6.092
REMARK  Name = 
REMARK  8 active torsions:
REMARK  status: ('A' for Active; 'I' for Inactive)
REMARK    1  A    between atoms: C_2  and  C_3
REMARK    2  A    between atoms: C_3  and  O_4
REMARK    3  A    between atoms: O_4  and  C_5
REMARK    4  A    between atoms: C_5  and  C_7
REMARK    5  A    between atoms: N_10  and  C_11
REMARK    6  A    between atoms: C_11  and  C_12
REMARK    7  A    between atoms: C_12  and  C_13
REMARK    8  A    between atoms: C_16  and  O_17
REMARK                            x       y       z     vdW  Elec       q    Type
REMARK                         _______ _______ _______ _____ _____    ______ ____
ROOT
ATOM      1  C   UNL     1      36.711   2.404  15.598  0.00  0.00    +0.000 A 
ATOM      2  C   UNL     1      36.914   2.281  14.249  0.00  0.00    +0.000 A 
ATOM      3  N   UNL     1      36.195   1.400  13.410  0.00  0.00    +0.000 NA
ATOM      4  N   UNL     1      37.885   3.103  13.874  0.00  0.00    +0.000 N 
ATOM      5  C   UNL     1      38.311   3.760  14.991  0.00  0.00    +0.000 A 
ATOM      6  N   UNL     1      39.262   4.694  15.185  0.00  0.00    +0.000 NA
ATOM      7  C   UNL     1      39.513   5.216  16.417  0.00  0.00    +0.000 A 
ATOM      8  C   UNL     1      40.486   6.171  16.612  0.00  0.00    +0.000 A 
ATOM      9  C   UNL     1      40.761   6.717  17.855  0.00  0.00    +0.000 A 
ATOM     10  C   UNL     1      40.032   6.287  18.947  0.00  0.00    +0.000 A 
ATOM     11  C   UNL     1      39.041   5.319  18.777  0.00  0.00    +0.000 A 
ATOM     12  C   UNL     1      38.792   4.793  17.513  0.00  0.00    +0.000 A 
ATOM     13  N   UNL     1      37.840   3.857  17.314  0.00  0.00    +0.000 NA
ATOM     14  C   UNL     1      37.596   3.345  16.093  0.00  0.00    +0.000 A 
ENDROOT
BRANCH   1  15
ATOM     15  C   UNL     1      35.748   1.685  16.403  0.00  0.00    +0.000 C 
ATOM     16  O   UNL     1      34.586   2.145  16.549  0.00  0.00    +0.000 OA
BRANCH  15  17
ATOM     17  O   UNL     1      36.035   0.486  17.040  0.00  0.00    +0.000 OA
BRANCH  17  18
ATOM     18  C   UNL     1      35.195  -0.186  17.926  0.00  0.00    +0.000 C 
BRANCH  18  20
ATOM     19  C   UNL     1      36.910  -1.258  19.255  0.00  0.00    +0.000 C 
ATOM     20  C   UNL     1      35.834  -0.493  19.217  0.00  0.00    +0.000 C 
ENDBRANCH  18  20
ENDBRANCH  17  18
ENDBRANCH  15  17
ENDBRANCH   1  15
BRANCH   4  21
ATOM     21  C   UNL     1      38.377   3.266  12.524  0.00  0.00    +0.000 C 
BRANCH  21  22
ATOM     22  C   UNL     1      39.817   2.869  12.474  0.00  0.00    +0.000 C 
BRANCH  22  23
ATOM     23  C   UNL     1      39.960   1.408  12.634  0.00  0.00    +0.000 A 
ATOM     24  C   UNL     1      40.714   0.874  13.670  0.00  0.00    +0.000 A 
ATOM     25  C   UNL     1      40.838  -0.503  13.805  0.00  0.00    +0.000 A 
ATOM     26  C   UNL     1      40.230  -1.385  12.939  0.00  0.00    +0.000 A 
ATOM     27  C   UNL     1      39.478  -0.863  11.908  0.00  0.00    +0.000 A 
ATOM     28  C   UNL     1      39.357   0.501  11.774  0.00  0.00    +0.000 A 
BRANCH  26  29
ATOM     29  O   UNL     1      40.369  -2.767  13.098  0.00  0.00    +0.000 OA
ATOM     30  C   UNL     1      41.659  -3.339  12.970  0.00  0.00    +0.000 C 
ENDBRANCH  26  29
ENDBRANCH  22  23
ENDBRANCH  21  22
ENDBRANCH   4  21
TORSDOF 8
ENDMDL
MODEL 10
REMARK VINA RESULT:      -6.5      4.436      7.675
REMARK  Name = 
REMARK  8 active torsions:
REMARK  status: ('A' for Active; 'I' for Inactive)
REMARK    1  A    between atoms: C_2  and  C_3
REMARK    2  A    between atoms: C_3  and  O_4
REMARK    3  A    between atoms: O_4  and  C_5
REMARK    4  A    between atoms: C_5  and  C_7
REMARK    5  A    between atoms: N_10  and  C_11
REMARK    6  A    between atoms: C_11  and  C_12
REMARK    7  A    between atoms: C_12  and  C_13
REMARK    8  A    between atoms: C_16  and  O_17
REMARK                            x       y       z     vdW  Elec       q    Type
REMARK                         _______ _______ _______ _____ _____    ______ ____
ROOT
ATOM      1  C   UNL     1      36.095   9.335  15.526  0.00  0.00    +0.000 A 
ATOM      2  C   UNL     1      35.939   8.553  14.412  0.00  0.00    +0.000 A 
ATOM      3  N   UNL     1      35.164   8.911  13.287  0.00  0.00    +0.000 NA
ATOM      4  N   UNL     1      36.618   7.424  14.571  0.00  0.00    +0.000 N 
ATOM      5  C   UNL     1      37.213   7.480  15.796  0.00  0.00    +0.000 A 
ATOM      6  N   UNL     1      38.008   6.616  16.457  0.00  0.00    +0.000 NA
ATOM      7  C   UNL     1      38.494   6.896  17.698  0.00  0.00    +0.000 A 
ATOM      8  C   UNL     1      39.307   6.010  18.371  0.00  0.00    +0.000 A 
ATOM      9  C   UNL     1      39.814   6.270  19.633  0.00  0.00    +0.000 A 
ATOM     10  C   UNL     1      39.493   7.466  20.247  0.00  0.00    +0.000 A 
ATOM     11  C   UNL     1      38.671   8.381  19.586  0.00  0.00    +0.000 A 
ATOM     12  C   UNL     1      38.180   8.086  18.318  0.00  0.00    +0.000 A 
ATOM     13  N   UNL     1      37.384   8.948  17.652  0.00  0.00    +0.000 NA
ATOM     14  C   UNL     1      36.906   8.666  16.425  0.00  0.00    +0.000 A 
ENDROOT
BRANCH   1  15
ATOM     15  C   UNL     1      35.519  10.642  15.760  0.00  0.00    +0.000 C 
ATOM     16  O   UNL     1      36.208  11.675  15.560  0.00  0.00    +0.000 OA
BRANCH  15  17
ATOM     17  O   UNL     1      34.218  10.830  16.203  0.00  0.00    +0.000 OA
BRANCH  17  18
ATOM     18  C   UNL     1      33.770  10.653  17.511  0.00  0.00    +0.000 C 
BRANCH  18  20
ATOM     19  C   UNL     1      32.527   9.106  18.898  0.00  0.00    +0.000 C 
ATOM     20  C   UNL     1      33.014   9.403  17.706  0.00  0.00    +0.000 C 
ENDBRANCH  18  20
ENDBRANCH  17  18
ENDBRANCH  15  17
ENDBRANCH   1  15
BRANCH   4  21
ATOM     21  C   UNL     1      36.706   6.351  13.605  0.00  0.00    +0.000 C 
BRANCH  21  22
ATOM     22  C   UNL     1      35.513   5.464  13.747  0.00  0.00    +0.000 C 
BRANCH  22  23
ATOM     23  C   UNL     1      35.875   4.212  14.441  0.00  0.00    +0.000 A 
ATOM     24  C   UNL     1      34.897   3.372  14.955  0.00  0.00    +0.000 A 
ATOM     25  C   UNL     1      35.256   2.198  15.605  0.00  0.00    +0.000 A 
ATOM     26  C   UNL     1      36.571   1.817  15.765  0.00  0.00    +0.000 A 
ATOM     27  C   UNL     1      37.549   2.645  15.256  0.00  0.00    +0.000 A 
ATOM     28  C   UNL     1      37.192   3.809  14.614  0.00  0.00    +0.000 A 
BRANCH  26  29
ATOM     29  O   UNL     1      36.906   0.630  16.422  0.00  0.00    +0.000 OA
ATOM     30  C   UNL     1      36.326  -0.582  15.972  0.00  0.00    +0.000 C 
ENDBRANCH  26  29
ENDBRANCH  22  23
ENDBRANCH  21  22
ENDBRANCH   4  21
TORSDOF 8
ENDMDL
