MODEL 1
REMARK VINA RESULT:      -7.8      0.000      0.000
REMARK  Name = 
REMARK  8 active torsions:
REMARK  status: ('A' for Active; 'I' for Inactive)
REMARK    1  A    between atoms: C_2  and  O_3
REMARK    2  A    between atoms: O_3  and  C_4
REMARK    3  A    between atoms: C_7  and  N_8
REMARK    4  A    between atoms: N_8  and  C_9
REMARK    5  A    between atoms: C_10  and  S_11
REMARK    6  A    between atoms: S_11  and  C_12
REMARK    7  A    between atoms: N_20  and  C_21
REMARK    8  A    between atoms: C_21  and  C_22
REMARK                            x       y       z     vdW  Elec       q    Type
REMARK                         _______ _______ _______ _____ _____    ______ ____
ROOT
ATOM      1  C   UNL     1      36.555   4.381  14.979  0.00  0.00    +0.000 C 
ATOM      2  C   UNL     1      37.792   3.911  14.998  0.00  0.00    +0.000 C 
ATOM      3  C   UNL     1      37.769   2.469  15.088  0.00  0.00    +0.000 C 
ATOM      4  O   UNL     1      38.779   1.702  15.127  0.00  0.00    +0.000 OA
ATOM      5  N   UNL     1      36.418   2.072  15.127  0.00  0.00    +0.000 N 
ATOM      6  C   UNL     1      35.636   3.249  15.060  0.00  0.00    +0.000 C 
ATOM      7  O   UNL     1      34.362   3.308  15.069  0.00  0.00    +0.000 OA
ENDROOT
BRANCH   1   8
ATOM      8  N   UNL     1      36.150   5.740  14.898  0.00  0.00    +0.000 NA
BRANCH   8  12
ATOM      9  C   UNL     1      34.209   6.945  11.403  0.00  0.00    +0.000 A 
ATOM     10  C   UNL     1      35.458   6.370  11.299  0.00  0.00    +0.000 A 
ATOM     11  C   UNL     1      36.103   5.971  12.449  0.00  0.00    +0.000 A 
ATOM     12  C   UNL     1      35.508   6.145  13.675  0.00  0.00    +0.000 A 
ATOM     13  C   UNL     1      34.257   6.721  13.781  0.00  0.00    +0.000 A 
ATOM     14  C   UNL     1      33.618   7.116  12.645  0.00  0.00    +0.000 A 
BRANCH   9  15
ATOM     15  O   UNL     1      33.534   7.359  10.265  0.00  0.00    +0.000 OA
BRANCH  15  17
ATOM     16  C   UNL     1      34.564   8.492   8.475  0.00  0.00    +0.000 C 
ATOM     17  C   UNL     1      34.099   7.147   8.989  0.00  0.00    +0.000 C 
ENDBRANCH  15  17
ENDBRANCH   9  15
ENDBRANCH   8  12
ENDBRANCH   1   8
BRANCH   2  18
ATOM     18  S   UNL     1      39.219   4.980  14.915  0.00  0.00    +0.000 S 
BRANCH  18  19
ATOM     19  C   UNL     1      39.741   5.503  16.541  0.00  0.00    +0.000 A 
ATOM     20  C   UNL     1      38.967   5.251  17.657  0.00  0.00    +0.000 A 
ATOM     21  C   UNL     1      39.396   5.670  18.914  0.00  0.00    +0.000 A 
ATOM     22  C   UNL     1      40.581   6.333  19.071  0.00  0.00    +0.000 A 
ATOM     23  C   UNL     1      41.370   6.597  17.979  0.00  0.00    +0.000 A 
ATOM     24  C   UNL     1      40.931   6.175  16.741  0.00  0.00    +0.000 A 
ENDBRANCH  18  19
ENDBRANCH   2  18
BRANCH   5  25
ATOM     25  C   UNL     1      35.940   0.707  15.217  0.00  0.00    +0.000 C 
BRANCH  25  26
ATOM     26  C   UNL     1      36.137   0.134  16.576  0.00  0.00    +0.000 A 
ATOM     27  C   UNL     1      37.004  -0.917  16.712  0.00  0.00    +0.000 A 
ATOM     28  C   UNL     1      37.224  -1.483  17.940  0.00  0.00    +0.000 A 
ATOM     29  C   UNL     1      36.574  -0.999  19.044  0.00  0.00    +0.000 A 
ATOM     30  C   UNL     1      35.700   0.052  18.938  0.00  0.00    +0.000 A 
ATOM     31  C   UNL     1      35.495   0.606  17.689  0.00  0.00    +0.000 A 
ENDBRANCH  25  26
ENDBRANCH   5  25
TORSDOF 8
ENDMDL
MODEL 2
REMARK VINA RESULT:      -7.6      2.349      3.141
REMARK  Name = 
REMARK  8 active torsions:
REMARK  status: ('A' for Active; 'I' for Inactive)
REMARK    1  A    between atoms: C_2  and  O_3
REMARK    2  A    between atoms: O_3  and  C_4
REMARK    3  A    between atoms: C_7  and  N_8
REMARK    4  A    between atoms: N_8  and  C_9
REMARK    5  A    between atoms: C_10  and  S_11
REMARK    6  A    between atoms: S_11  and  C_12
REMARK    7  A    between atoms: N_20  and  C_21
REMARK    8  A    between atoms: C_21  and  C_22
REMARK                            x       y       z     vdW  Elec       q    Type
REMARK                         _______ _______ _______ _____ _____    ______ ____
ROOT
ATOM      1  C   UNL     1      36.276   4.176  15.027  0.00  0.00    +0.000 C 
ATOM      2  C   UNL     1      37.203   4.105  15.969  0.00  0.00    +0.000 C 
ATOM      3  C   UNL     1      36.847   3.088  16.931  0.00  0.00    +0.000 C 
ATOM      4  O   UNL     1      37.514   2.760  17.960  0.00  0.00    +0.000 OA
ATOM      5  N   UNL     1      35.621   2.529  16.520  0.00  0.00    +0.000 N 
ATOM      6  C   UNL     1      35.241   3.192  15.329  0.00  0.00    +0.000 C 
ATOM      7  O   UNL     1      34.186   2.968  14.647  0.00  0.00    +0.000 OA
ENDROOT
BRANCH   1   8
ATOM      8  N   UNL     1      36.254   5.046  13.903  0.00  0.00    +0.000 NA
BRANCH   8  12
ATOM      9  C   UNL     1      34.409   8.748  14.473  0.00  0.00    +0.000 A 
ATOM     10  C   UNL     1      35.787   8.685  14.504  0.00  0.00    +0.000 A 
ATOM     11  C   UNL     1      36.400   7.466  14.316  0.00  0.00    +0.000 A 
ATOM     12  C   UNL     1      35.649   6.336  14.103  0.00  0.00    +0.000 A 
ATOM     13  C   UNL     1      34.270   6.397  14.073  0.00  0.00    +0.000 A 
ATOM     14  C   UNL     1      33.661   7.601  14.258  0.00  0.00    +0.000 A 
BRANCH   9  15
ATOM     15  O   UNL     1      33.761   9.959  14.660  0.00  0.00    +0.000 OA
BRANCH  15  17
ATOM     16  C   UNL     1      33.425   9.943  16.991  0.00  0.00    +0.000 C 
ATOM     17  C   UNL     1      33.999  10.719  15.826  0.00  0.00    +0.000 C 
ENDBRANCH  15  17
ENDBRANCH   9  15
ENDBRANCH   8  12
ENDBRANCH   1   8
BRANCH   2  18
ATOM     18  S   UNL     1      38.649   5.151  15.964  0.00  0.00    +0.000 S 
BRANCH  18  19
ATOM     19  C   UNL     1      38.831   6.026  17.510  0.00  0.00    +0.000 A 
ATOM     20  C   UNL     1      38.051   7.127  17.804  0.00  0.00    +0.000 A 
ATOM     21  C   UNL     1      38.213   7.793  19.017  0.00  0.00    +0.000 A 
ATOM     22  C   UNL     1      39.136   7.376  19.934  0.00  0.00    +0.000 A 
ATOM     23  C   UNL     1      39.925   6.284  19.667  0.00  0.00    +0.000 A 
ATOM     24  C   UNL     1      39.752   5.636  18.461  0.00  0.00    +0.000 A 
ENDBRANCH  18  19
ENDBRANCH   2  18
BRANCH   5  25
ATOM     25  C   UNL     1      34.902   1.473  17.202  0.00  0.00    +0.000 C 
BRANCH  25  26
ATOM     26  C   UNL     1      35.194   0.134  16.625  0.00  0.00    +0.000 A 
ATOM     27  C   UNL     1      34.534  -0.949  17.145  0.00  0.00    +0.000 A 
ATOM     28  C   UNL     1      34.763  -2.206  16.650  0.00  0.00    +0.000 A 
ATOM     29  C   UNL     1      35.658  -2.389  15.629  0.00  0.00    +0.000 A 
ATOM     30  C   UNL     1      36.333  -1.323  15.090  0.00  0.00    +0.000 A 
ATOM     31  C   UNL     1      36.084  -0.066  15.605  0.00  0.00    +0.000 A 
ENDBRANCH  25  26
ENDBRANCH   5  25
TORSDOF 8
ENDMDL
MODEL 3
REMARK VINA RESULT:      -7.5      3.754      8.292
REMARK  Name = 
REMARK  8 active torsions:
REMARK  status: ('A' for Active; 'I' for Inactive)
REMARK    1  A    between atoms: C_2  and  O_3
REMARK    2  A    between atoms: O_3  and  C_4
REMARK    3  A    between atoms: C_7  and  N_8
REMARK    4  A    between atoms: N_8  and  C_9
REMARK    5  A    between atoms: C_10  and  S_11
REMARK    6  A    between atoms: S_11  and  C_12
REMARK    7  A    between atoms: N_20  and  C_21
REMARK    8  A    between atoms: C_21  and  C_22
REMARK                            x       y       z     vdW  Elec       q    Type
REMARK                         _______ _______ _______ _____ _____    ______ ____
ROOT
ATOM      1  C   UNL     1      36.463  -0.341  14.653  0.00  0.00    +0.000 C 
ATOM      2  C   UNL     1      35.704  -0.310  15.737  0.00  0.00    +0.000 C 
ATOM      3  C   UNL     1      35.386   1.058  16.073  0.00  0.00    +0.000 C 
ATOM      4  O   UNL     1      34.678   1.447  17.053  0.00  0.00    +0.000 OA
ATOM      5  N   UNL     1      36.006   1.883  15.116  0.00  0.00    +0.000 N 
ATOM      6  C   UNL     1      36.688   1.032  14.213  0.00  0.00    +0.000 C 
ATOM      7  O   UNL     1      37.373   1.401  13.202  0.00  0.00    +0.000 OA
ENDROOT
BRANCH   1   8
ATOM      8  N   UNL     1      36.988  -1.490  14.001  0.00  0.00    +0.000 NA
BRANCH   8  12
ATOM      9  C   UNL     1      41.144  -1.863  13.845  0.00  0.00    +0.000 A 
ATOM     10  C   UNL     1      40.540  -1.713  15.076  0.00  0.00    +0.000 A 
ATOM     11  C   UNL     1      39.170  -1.590  15.133  0.00  0.00    +0.000 A 
ATOM     12  C   UNL     1      38.421  -1.616  13.981  0.00  0.00    +0.000 A 
ATOM     13  C   UNL     1      39.024  -1.765  12.748  0.00  0.00    +0.000 A 
ATOM     14  C   UNL     1      40.379  -1.887  12.689  0.00  0.00    +0.000 A 
BRANCH   9  15
ATOM     15  O   UNL     1      42.521  -1.989  13.753  0.00  0.00    +0.000 OA
BRANCH  15  17
ATOM     16  C   UNL     1      43.477   0.160  13.885  0.00  0.00    +0.000 C 
ATOM     17  C   UNL     1      43.362  -1.190  14.558  0.00  0.00    +0.000 C 
ENDBRANCH  15  17
ENDBRANCH   9  15
ENDBRANCH   8  12
ENDBRANCH   1   8
BRANCH   2  18
ATOM     18  S   UNL     1      35.197  -1.794  16.588  0.00  0.00    +0.000 S 
BRANCH  18  19
ATOM     19  C   UNL     1      36.577  -2.594  17.392  0.00  0.00    +0.000 A 
ATOM     20  C   UNL     1      37.157  -2.055  18.523  0.00  0.00    +0.000 A 
ATOM     21  C   UNL     1      38.233  -2.697  19.130  0.00  0.00    +0.000 A 
ATOM     22  C   UNL     1      38.734  -3.864  18.626  0.00  0.00    +0.000 A 
ATOM     23  C   UNL     1      38.177  -4.423  17.503  0.00  0.00    +0.000 A 
ATOM     24  C   UNL     1      37.112  -3.773  16.913  0.00  0.00    +0.000 A 
ENDBRANCH  18  19
ENDBRANCH   2  18
BRANCH   5  25
ATOM     25  C   UNL     1      35.946   3.330  15.078  0.00  0.00    +0.000 C 
BRANCH  25  26
ATOM     26  C   UNL     1      37.160   3.957  15.665  0.00  0.00    +0.000 A 
ATOM     27  C   UNL     1      38.074   4.514  14.810  0.00  0.00    +0.000 A 
ATOM     28  C   UNL     1      39.210   5.106  15.295  0.00  0.00    +0.000 A 
ATOM     29  C   UNL     1      39.441   5.143  16.645  0.00  0.00    +0.000 A 
ATOM     30  C   UNL     1      38.543   4.593  17.525  0.00  0.00    +0.000 A 
ATOM     31  C   UNL     1      37.405   4.002  17.010  0.00  0.00    +0.000 A 
ENDBRANCH  25  26
ENDBRANCH   5  25
TORSDOF 8
ENDMDL
MODEL 4
REMARK VINA RESULT:      -7.4      2.282      7.960
REMARK  Name = 
REMARK  8 active torsions:
REMARK  status: ('A' for Active; 'I' for Inactive)
REMARK    1  A    between atoms: C_2  and  O_3
REMARK    2  A    between atoms: O_3  and  C_4
REMARK    3  A    between atoms: C_7  and  N_8
REMARK    4  A    between atoms: N_8  and  C_9
REMARK    5  A    between atoms: C_10  and  S_11
REMARK    6  A    between atoms: S_11  and  C_12
REMARK    7  A    between atoms: N_20  and  C_21
REMARK    8  A    between atoms: C_21  and  C_22
REMARK                            x       y       z     vdW  Elec       q    Type
REMARK                         _______ _______ _______ _____ _____    ______ ____
ROOT
ATOM      1  C   UNL     1      36.943   3.522  16.255  0.00  0.00    +0.000 C 
ATOM      2  C   UNL     1      37.334   4.160  15.163  0.00  0.00    +0.000 C 
ATOM      3  C   UNL     1      38.458   5.014  15.471  0.00  0.00    +0.000 C 
ATOM      4  O   UNL     1      39.077   5.765  14.655  0.00  0.00    +0.000 OA
ATOM      5  N   UNL     1      38.740   4.863  16.842  0.00  0.00    +0.000 N 
ATOM      6  C   UNL     1      37.806   3.932  17.358  0.00  0.00    +0.000 C 
ATOM      7  O   UNL     1      37.734   3.530  18.566  0.00  0.00    +0.000 OA
ENDROOT
BRANCH   1   8
ATOM      8  N   UNL     1      35.875   2.592  16.374  0.00  0.00    +0.000 NA
BRANCH   8  12
ATOM      9  C   UNL     1      36.890  -1.352  17.293  0.00  0.00    +0.000 A 
ATOM     10  C   UNL     1      37.281  -0.837  16.075  0.00  0.00    +0.000 A 
ATOM     11  C   UNL     1      36.948   0.463  15.767  0.00  0.00    +0.000 A 
ATOM     12  C   UNL     1      36.240   1.231  16.660  0.00  0.00    +0.000 A 
ATOM     13  C   UNL     1      35.848   0.716  17.880  0.00  0.00    +0.000 A 
ATOM     14  C   UNL     1      36.176  -0.570  18.187  0.00  0.00    +0.000 A 
BRANCH   9  15
ATOM     15  O   UNL     1      37.208  -2.658  17.634  0.00  0.00    +0.000 OA
BRANCH  15  17
ATOM     16  C   UNL     1      38.940  -4.010  16.785  0.00  0.00    +0.000 C 
ATOM     17  C   UNL     1      38.552  -3.023  17.864  0.00  0.00    +0.000 C 
ENDBRANCH  15  17
ENDBRANCH   9  15
ENDBRANCH   8  12
ENDBRANCH   1   8
BRANCH   2  18
ATOM     18  S   UNL     1      36.531   3.932  13.586  0.00  0.00    +0.000 S 
BRANCH  18  19
ATOM     19  C   UNL     1      35.503   5.331  13.165  0.00  0.00    +0.000 A 
ATOM     20  C   UNL     1      34.558   5.815  14.048  0.00  0.00    +0.000 A 
ATOM     21  C   UNL     1      33.768   6.907  13.696  0.00  0.00    +0.000 A 
ATOM     22  C   UNL     1      33.910   7.518  12.481  0.00  0.00    +0.000 A 
ATOM     23  C   UNL     1      34.841   7.058  11.585  0.00  0.00    +0.000 A 
ATOM     24  C   UNL     1      35.615   5.975  11.949  0.00  0.00    +0.000 A 
ENDBRANCH  18  19
ENDBRANCH   2  18
BRANCH   5  25
ATOM     25  C   UNL     1      39.794   5.540  17.569  0.00  0.00    +0.000 C 
BRANCH  25  26
ATOM     26  C   UNL     1      39.258   6.558  18.512  0.00  0.00    +0.000 A 
ATOM     27  C   UNL     1      39.878   6.700  19.725  0.00  0.00    +0.000 A 
ATOM     28  C   UNL     1      39.428   7.623  20.632  0.00  0.00    +0.000 A 
ATOM     29  C   UNL     1      38.349   8.412  20.330  0.00  0.00    +0.000 A 
ATOM     30  C   UNL     1      37.709   8.290  19.124  0.00  0.00    +0.000 A 
ATOM     31  C   UNL     1      38.182   7.353  18.226  0.00  0.00    +0.000 A 
ENDBRANCH  25  26
ENDBRANCH   5  25
TORSDOF 8
ENDMDL
MODEL 5
REMARK VINA RESULT:      -7.3      2.125      5.802
REMARK  Name = 
REMARK  8 active torsions:
REMARK  status: ('A' for Active; 'I' for Inactive)
REMARK    1  A    between atoms: C_2  and  O_3
REMARK    2  A    between atoms: O_3  and  C_4
REMARK    3  A    between atoms: C_7  and  N_8
REMARK    4  A    between atoms: N_8  and  C_9
REMARK    5  A    between atoms: C_10  and  S_11
REMARK    6  A    between atoms: S_11  and  C_12
REMARK    7  A    between atoms: N_20  and  C_21
REMARK    8  A    between atoms: C_21  and  C_22
REMARK                            x       y       z     vdW  Elec       q    Type
REMARK                         _______ _______ _______ _____ _____    ______ ____
ROOT
ATOM      1  C   UNL     1      36.952   4.066  14.835  0.00  0.00    +0.000 C 
ATOM      2  C   UNL     1      36.651   3.462  15.974  0.00  0.00    +0.000 C 
ATOM      3  C   UNL     1      37.634   3.794  16.979  0.00  0.00    +0.000 C 
ATOM      4  O   UNL     1      37.648   3.385  18.181  0.00  0.00    +0.000 OA
ATOM      5  N   UNL     1      38.576   4.652  16.381  0.00  0.00    +0.000 N 
ATOM      6  C   UNL     1      38.173   4.841  15.037  0.00  0.00    +0.000 C 
ATOM      7  O   UNL     1      38.769   5.555  14.165  0.00  0.00    +0.000 OA
ENDROOT
BRANCH   1   8
ATOM      8  N   UNL     1      36.237   3.998  13.608  0.00  0.00    +0.000 NA
BRANCH   8  12
ATOM      9  C   UNL     1      34.426   7.511  12.264  0.00  0.00    +0.000 A 
ATOM     10  C   UNL     1      34.055   7.006  13.492  0.00  0.00    +0.000 A 
ATOM     11  C   UNL     1      34.649   5.847  13.940  0.00  0.00    +0.000 A 
ATOM     12  C   UNL     1      35.595   5.210  13.174  0.00  0.00    +0.000 A 
ATOM     13  C   UNL     1      35.967   5.715  11.943  0.00  0.00    +0.000 A 
ATOM     14  C   UNL     1      35.381   6.860  11.499  0.00  0.00    +0.000 A 
BRANCH   9  15
ATOM     15  O   UNL     1      33.846   8.675  11.783  0.00  0.00    +0.000 OA
BRANCH  15  17
ATOM     16  C   UNL     1      34.571  10.659  12.828  0.00  0.00    +0.000 C 
ATOM     17  C   UNL     1      34.637   9.825  11.567  0.00  0.00    +0.000 C 
ENDBRANCH  15  17
ENDBRANCH   9  15
ENDBRANCH   8  12
ENDBRANCH   1   8
BRANCH   2  18
ATOM     18  S   UNL     1      35.219   2.412  16.147  0.00  0.00    +0.000 S 
BRANCH  18  19
ATOM     19  C   UNL     1      35.613   0.703  15.809  0.00  0.00    +0.000 A 
ATOM     20  C   UNL     1      36.417   0.351  14.742  0.00  0.00    +0.000 A 
ATOM     21  C   UNL     1      36.709  -0.988  14.500  0.00  0.00    +0.000 A 
ATOM     22  C   UNL     1      36.214  -1.976  15.304  0.00  0.00    +0.000 A 
ATOM     23  C   UNL     1      35.413  -1.655  16.372  0.00  0.00    +0.000 A 
ATOM     24  C   UNL     1      35.133  -0.323  16.598  0.00  0.00    +0.000 A 
ENDBRANCH  18  19
ENDBRANCH   2  18
BRANCH   5  25
ATOM     25  C   UNL     1      39.734   5.226  17.035  0.00  0.00    +0.000 C 
BRANCH  25  26
ATOM     26  C   UNL     1      39.354   6.199  18.094  0.00  0.00    +0.000 A 
ATOM     27  C   UNL     1      40.085   6.208  19.252  0.00  0.00    +0.000 A 
ATOM     28  C   UNL     1      39.780   7.084  20.260  0.00  0.00    +0.000 A 
ATOM     29  C   UNL     1      38.736   7.959  20.116  0.00  0.00    +0.000 A 
ATOM     30  C   UNL     1      37.986   7.972  18.967  0.00  0.00    +0.000 A 
ATOM     31  C   UNL     1      38.314   7.080  17.965  0.00  0.00    +0.000 A 
ENDBRANCH  25  26
ENDBRANCH   5  25
TORSDOF 8
ENDMDL
MODEL 6
REMARK VINA RESULT:      -7.2      2.226      7.137
REMARK  Name = 
REMARK  8 active torsions:
REMARK  status: ('A' for Active; 'I' for Inactive)
REMARK    1  A    between atoms: C_2  and  O_3
REMARK    2  A    between atoms: O_3  and  C_4
REMARK    3  A    between atoms: C_7  and  N_8
REMARK    4  A    between atoms: N_8  and  C_9
REMARK    5  A    between atoms: C_10  and  S_11
REMARK    6  A    between atoms: S_11  and  C_12
REMARK    7  A    between atoms: N_20  and  C_21
REMARK    8  A    between atoms: C_21  and  C_22
REMARK                            x       y       z     vdW  Elec       q    Type
REMARK                         _______ _______ _______ _____ _____    ______ ____
ROOT
ATOM      1  C   UNL     1      36.640   3.796  15.934  0.00  0.00    +0.000 C 
ATOM      2  C   UNL     1      37.616   4.656  15.688  0.00  0.00    +0.000 C 
ATOM      3  C   UNL     1      37.238   5.532  14.604  0.00  0.00    +0.000 C 
ATOM      4  O   UNL     1      37.940   6.470  14.115  0.00  0.00    +0.000 OA
ATOM      5  N   UNL     1      35.947   5.153  14.187  0.00  0.00    +0.000 N 
ATOM      6  C   UNL     1      35.547   4.068  15.004  0.00  0.00    +0.000 C 
ATOM      7  O   UNL     1      34.437   3.445  14.937  0.00  0.00    +0.000 OA
ENDROOT
BRANCH   1   8
ATOM      8  N   UNL     1      36.619   2.773  16.920  0.00  0.00    +0.000 NA
BRANCH   8  12
ATOM      9  C   UNL     1      36.017  -1.102  15.486  0.00  0.00    +0.000 A 
ATOM     10  C   UNL     1      35.196  -0.635  16.492  0.00  0.00    +0.000 A 
ATOM     11  C   UNL     1      35.391   0.642  16.968  0.00  0.00    +0.000 A 
ATOM     12  C   UNL     1      36.386   1.434  16.448  0.00  0.00    +0.000 A 
ATOM     13  C   UNL     1      37.208   0.968  15.441  0.00  0.00    +0.000 A 
ATOM     14  C   UNL     1      37.018  -0.295  14.969  0.00  0.00    +0.000 A 
BRANCH   9  15
ATOM     15  O   UNL     1      35.848  -2.383  14.985  0.00  0.00    +0.000 OA
BRANCH  15  17
ATOM     16  C   UNL     1      34.195  -4.060  14.905  0.00  0.00    +0.000 C 
ATOM     17  C   UNL     1      35.229  -3.377  15.774  0.00  0.00    +0.000 C 
ENDBRANCH  15  17
ENDBRANCH   9  15
ENDBRANCH   8  12
ENDBRANCH   1   8
BRANCH   2  18
ATOM     18  S   UNL     1      39.141   4.656  16.616  0.00  0.00    +0.000 S 
BRANCH  18  19
ATOM     19  C   UNL     1      39.096   5.842  17.951  0.00  0.00    +0.000 A 
ATOM     20  C   UNL     1      38.157   6.854  17.977  0.00  0.00    +0.000 A 
ATOM     21  C   UNL     1      38.144   7.767  19.029  0.00  0.00    +0.000 A 
ATOM     22  C   UNL     1      39.050   7.683  20.049  0.00  0.00    +0.000 A 
ATOM     23  C   UNL     1      39.994   6.686  20.048  0.00  0.00    +0.000 A 
ATOM     24  C   UNL     1      39.994   5.790  18.999  0.00  0.00    +0.000 A 
ENDBRANCH  18  19
ENDBRANCH   2  18
BRANCH   5  25
ATOM     25  C   UNL     1      35.186   5.772  13.121  0.00  0.00    +0.000 C 
BRANCH  25  26
ATOM     26  C   UNL     1      34.769   7.159  13.463  0.00  0.00    +0.000 A 
ATOM     27  C   UNL     1      35.177   8.175  12.640  0.00  0.00    +0.000 A 
ATOM     28  C   UNL     1      34.821   9.470  12.906  0.00  0.00    +0.000 A 
ATOM     29  C   UNL     1      34.053   9.759  14.003  0.00  0.00    +0.000 A 
ATOM     30  C   UNL     1      33.630   8.762  14.845  0.00  0.00    +0.000 A 
ATOM     31  C   UNL     1      34.002   7.463  14.554  0.00  0.00    +0.000 A 
ENDBRANCH  25  26
ENDBRANCH   5  25
TORSDOF 8
ENDMDL
MODEL 7
REMARK VINA RESULT:      -7.2      3.622      6.729
REMARK  Name = 
REMARK  8 active torsions:
REMARK  status: ('A' for Active; 'I' for Inactive)
REMARK    1  A    between atoms: C_2  and  O_3
REMARK    2  A    between atoms: O_3  and  C_4
REMARK    3  A    between atoms: C_7  and  N_8
REMARK    4  A    between atoms: N_8  and  C_9
REMARK    5  A    between atoms: C_10  and  S_11
REMARK    6  A    between atoms: S_11  and  C_12
REMARK    7  A    between atoms: N_20  and  C_21
REMARK    8  A    between atoms: C_21  and  C_22
REMARK                            x       y       z     vdW  Elec       q    Type
REMARK                         _______ _______ _______ _____ _____    ______ ____
ROOT
ATOM      1  C   UNL     1      37.363   3.134  14.196  0.00  0.00    +0.000 C 
ATOM      2  C   UNL     1      36.622   2.073  14.476  0.00  0.00    +0.000 C 
ATOM      3  C   UNL     1      37.128   0.921  13.768  0.00  0.00    +0.000 C 
ATOM      4  O   UNL     1      36.653  -0.256  13.811  0.00  0.00    +0.000 OA
ATOM      5  N   UNL     1      38.243   1.342  13.019  0.00  0.00    +0.000 N 
ATOM      6  C   UNL     1      38.414   2.725  13.269  0.00  0.00    +0.000 C 
ATOM      7  O   UNL     1      39.320   3.474  12.773  0.00  0.00    +0.000 OA
ENDROOT
BRANCH   1   8
ATOM      8  N   UNL     1      37.197   4.457  14.689  0.00  0.00    +0.000 NA
BRANCH   8  12
ATOM      9  C   UNL     1      39.841   5.700  17.672  0.00  0.00    +0.000 A 
ATOM     10  C   UNL     1      38.844   4.807  18.004  0.00  0.00    +0.000 A 
ATOM     11  C   UNL     1      37.969   4.394  17.024  0.00  0.00    +0.000 A 
ATOM     12  C   UNL     1      38.091   4.865  15.739  0.00  0.00    +0.000 A 
ATOM     13  C   UNL     1      39.089   5.760  15.405  0.00  0.00    +0.000 A 
ATOM     14  C   UNL     1      39.955   6.169  16.373  0.00  0.00    +0.000 A 
BRANCH   9  15
ATOM     15  O   UNL     1      40.737   6.136  18.635  0.00  0.00    +0.000 OA
BRANCH  15  17
ATOM     16  C   UNL     1      39.673   7.744  19.988  0.00  0.00    +0.000 C 
ATOM     17  C   UNL     1      40.300   6.367  19.957  0.00  0.00    +0.000 C 
ENDBRANCH  15  17
ENDBRANCH   9  15
ENDBRANCH   8  12
ENDBRANCH   1   8
BRANCH   2  18
ATOM     18  S   UNL     1      35.223   2.153  15.582  0.00  0.00    +0.000 S 
BRANCH  18  19
ATOM     19  C   UNL     1      35.367   0.966  16.909  0.00  0.00    +0.000 A 
ATOM     20  C   UNL     1      34.745  -0.264  16.839  0.00  0.00    +0.000 A 
ATOM     21  C   UNL     1      34.872  -1.172  17.887  0.00  0.00    +0.000 A 
ATOM     22  C   UNL     1      35.609  -0.870  18.998  0.00  0.00    +0.000 A 
ATOM     23  C   UNL     1      36.238   0.346  19.094  0.00  0.00    +0.000 A 
ATOM     24  C   UNL     1      36.102   1.234  18.047  0.00  0.00    +0.000 A 
ENDBRANCH  18  19
ENDBRANCH   2  18
BRANCH   5  25
ATOM     25  C   UNL     1      39.053   0.502  12.161  0.00  0.00    +0.000 C 
BRANCH  25  26
ATOM     26  C   UNL     1      39.937  -0.407  12.940  0.00  0.00    +0.000 A 
ATOM     27  C   UNL     1      40.964   0.152  13.654  0.00  0.00    +0.000 A 
ATOM     28  C   UNL     1      41.808  -0.637  14.390  0.00  0.00    +0.000 A 
ATOM     29  C   UNL     1      41.630  -1.996  14.414  0.00  0.00    +0.000 A 
ATOM     30  C   UNL     1      40.610  -2.582  13.708  0.00  0.00    +0.000 A 
ATOM     31  C   UNL     1      39.772  -1.765  12.975  0.00  0.00    +0.000 A 
ENDBRANCH  25  26
ENDBRANCH   5  25
TORSDOF 8
ENDMDL
MODEL 8
REMARK VINA RESULT:      -7.1      3.710      8.382
REMARK  Name = 
REMARK  8 active torsions:
REMARK  status: ('A' for Active; 'I' for Inactive)
REMARK    1  A    between atoms: C_2  and  O_3
REMARK    2  A    between atoms: O_3  and  C_4
REMARK    3  A    between atoms: C_7  and  N_8
REMARK    4  A    between atoms: N_8  and  C_9
REMARK    5  A    between atoms: C_10  and  S_11
REMARK    6  A    between atoms: S_11  and  C_12
REMARK    7  A    between atoms: N_20  and  C_21
REMARK    8  A    between atoms: C_21  and  C_22
REMARK                            x       y       z     vdW  Elec       q    Type
REMARK                         _______ _______ _______ _____ _____    ______ ____
ROOT
ATOM      1  C   UNL     1      38.232   1.175  13.997  0.00  0.00    +0.000 C 
ATOM      2  C   UNL     1      37.316   0.910  14.916  0.00  0.00    +0.000 C 
ATOM      3  C   UNL     1      36.884   2.137  15.546  0.00  0.00    +0.000 C 
ATOM      4  O   UNL     1      36.018   2.244  16.467  0.00  0.00    +0.000 OA
ATOM      5  N   UNL     1      37.603   3.192  14.951  0.00  0.00    +0.000 N 
ATOM      6  C   UNL     1      38.454   2.618  13.976  0.00  0.00    +0.000 C 
ATOM      7  O   UNL     1      39.265   3.248  13.221  0.00  0.00    +0.000 OA
ENDROOT
BRANCH   1   8
ATOM      8  N   UNL     1      38.905   0.247  13.158  0.00  0.00    +0.000 NA
BRANCH   8  12
ATOM      9  C   UNL     1      42.623  -1.120  14.476  0.00  0.00    +0.000 A 
ATOM     10  C   UNL     1      42.547   0.128  13.894  0.00  0.00    +0.000 A 
ATOM     11  C   UNL     1      41.323   0.584  13.457  0.00  0.00    +0.000 A 
ATOM     12  C   UNL     1      40.200  -0.195  13.601  0.00  0.00    +0.000 A 
ATOM     13  C   UNL     1      40.275  -1.445  14.183  0.00  0.00    +0.000 A 
ATOM     14  C   UNL     1      41.484  -1.897  14.615  0.00  0.00    +0.000 A 
BRANCH   9  15
ATOM     15  O   UNL     1      43.840  -1.608  14.925  0.00  0.00    +0.000 OA
BRANCH  15  17
ATOM     16  C   UNL     1      46.124  -2.013  14.508  0.00  0.00    +0.000 C 
ATOM     17  C   UNL     1      44.710  -2.273  14.033  0.00  0.00    +0.000 C 
ENDBRANCH  15  17
ENDBRANCH   9  15
ENDBRANCH   8  12
ENDBRANCH   1   8
BRANCH   2  18
ATOM     18  S   UNL     1      36.759  -0.751  15.254  0.00  0.00    +0.000 S 
BRANCH  18  19
ATOM     19  C   UNL     1      37.151  -1.247  16.925  0.00  0.00    +0.000 A 
ATOM     20  C   UNL     1      38.166  -2.147  17.184  0.00  0.00    +0.000 A 
ATOM     21  C   UNL     1      38.452  -2.519  18.495  0.00  0.00    +0.000 A 
ATOM     22  C   UNL     1      37.743  -2.006  19.545  0.00  0.00    +0.000 A 
ATOM     23  C   UNL     1      36.729  -1.110  19.316  0.00  0.00    +0.000 A 
ATOM     24  C   UNL     1      36.458  -0.752  18.011  0.00  0.00    +0.000 A 
ENDBRANCH  18  19
ENDBRANCH   2  18
BRANCH   5  25
ATOM     25  C   UNL     1      37.478   4.595  15.287  0.00  0.00    +0.000 C 
BRANCH  25  26
ATOM     26  C   UNL     1      38.461   5.013  16.322  0.00  0.00    +0.000 A 
ATOM     27  C   UNL     1      39.618   5.616  15.904  0.00  0.00    +0.000 A 
ATOM     28  C   UNL     1      40.558   6.022  16.814  0.00  0.00    +0.000 A 
ATOM     29  C   UNL     1      40.347   5.825  18.153  0.00  0.00    +0.000 A 
ATOM     30  C   UNL     1      39.198   5.223  18.600  0.00  0.00    +0.000 A 
ATOM     31  C   UNL     1      38.265   4.823  17.663  0.00  0.00    +0.000 A 
ENDBRANCH  25  26
ENDBRANCH   5  25
TORSDOF 8
ENDMDL
MODEL 9
REMARK VINA RESULT:      -7.1      2.618      6.317
REMARK  Name = 
REMARK  8 active torsions:
REMARK  status: ('A' for Active; 'I' for Inactive)
REMARK    1  A    between atoms: C_2  and  O_3
REMARK    2  A    between atoms: O_3  and  C_4
REMARK    3  A    between atoms: C_7  and  N_8
REMARK    4  A    between atoms: N_8  and  C_9
REMARK    5  A    between atoms: C_10  and  S_11
REMARK    6  A    between atoms: S_11  and  C_12
REMARK    7  A    between atoms: N_20  and  C_21
REMARK    8  A    between atoms: C_21  and  C_22
REMARK                            x       y       z     vdW  Elec       q    Type
REMARK                         _______ _______ _______ _____ _____    ______ ____
ROOT
ATOM      1  C   UNL     1      37.439   4.171  16.111  0.00  0.00    +0.000 C 
ATOM      2  C   UNL     1      36.580   4.369  15.123  0.00  0.00    +0.000 C 
ATOM      3  C   UNL     1      35.452   3.479  15.269  0.00  0.00    +0.000 C 
ATOM      4  O   UNL     1      34.447   3.406  14.496  0.00  0.00    +0.000 OA
ATOM      5  N   UNL     1      35.671   2.705  16.425  0.00  0.00    +0.000 N 
ATOM      6  C   UNL     1      36.909   3.118  16.973  0.00  0.00    +0.000 C 
ATOM      7  O   UNL     1      37.459   2.654  18.026  0.00  0.00    +0.000 OA
ENDROOT
BRANCH   1   8
ATOM      8  N   UNL     1      38.672   4.843  16.330  0.00  0.00    +0.000 NA
BRANCH   8  12
ATOM      9  C   UNL     1      38.849   7.465  19.575  0.00  0.00    +0.000 A 
ATOM     10  C   UNL     1      38.027   7.783  18.514  0.00  0.00    +0.000 A 
ATOM     11  C   UNL     1      37.965   6.922  17.441  0.00  0.00    +0.000 A 
ATOM     12  C   UNL     1      38.710   5.767  17.432  0.00  0.00    +0.000 A 
ATOM     13  C   UNL     1      39.533   5.448  18.494  0.00  0.00    +0.000 A 
ATOM     14  C   UNL     1      39.596   6.298  19.555  0.00  0.00    +0.000 A 
BRANCH   9  15
ATOM     15  O   UNL     1      38.934   8.311  20.670  0.00  0.00    +0.000 OA
BRANCH  15  17
ATOM     16  C   UNL     1      38.553  10.606  21.035  0.00  0.00    +0.000 C 
ATOM     17  C   UNL     1      39.546   9.577  20.542  0.00  0.00    +0.000 C 
ENDBRANCH  15  17
ENDBRANCH   9  15
ENDBRANCH   8  12
ENDBRANCH   1   8
BRANCH   2  18
ATOM     18  S   UNL     1      36.860   5.584  13.846  0.00  0.00    +0.000 S 
BRANCH  18  19
ATOM     19  C   UNL     1      35.873   7.050  14.107  0.00  0.00    +0.000 A 
ATOM     20  C   UNL     1      36.461   8.291  14.252  0.00  0.00    +0.000 A 
ATOM     21  C   UNL     1      35.670   9.419  14.455  0.00  0.00    +0.000 A 
ATOM     22  C   UNL     1      34.308   9.324  14.514  0.00  0.00    +0.000 A 
ATOM     23  C   UNL     1      33.697   8.103  14.372  0.00  0.00    +0.000 A 
ATOM     24  C   UNL     1      34.496   6.995  14.172  0.00  0.00    +0.000 A 
ENDBRANCH  18  19
ENDBRANCH   2  18
BRANCH   5  25
ATOM     25  C   UNL     1      34.783   1.683  16.940  0.00  0.00    +0.000 C 
BRANCH  25  26
ATOM     26  C   UNL     1      35.171   0.322  16.482  0.00  0.00    +0.000 A 
ATOM     27  C   UNL     1      36.029   0.221  15.419  0.00  0.00    +0.000 A 
ATOM     28  C   UNL     1      36.421  -1.007  14.956  0.00  0.00    +0.000 A 
ATOM     29  C   UNL     1      35.953  -2.147  15.555  0.00  0.00    +0.000 A 
ATOM     30  C   UNL     1      35.092  -2.076  16.621  0.00  0.00    +0.000 A 
ATOM     31  C   UNL     1      34.713  -0.826  17.069  0.00  0.00    +0.000 A 
ENDBRANCH  25  26
ENDBRANCH   5  25
TORSDOF 8
ENDMDL
MODEL 10
REMARK VINA RESULT:      -6.9     24.542     27.476
REMARK  Name = 
REMARK  8 active torsions:
REMARK  status: ('A' for Active; 'I' for Inactive)
REMARK    1  A    between atoms: C_2  and  O_3
REMARK    2  A    between atoms: O_3  and  C_4
REMARK    3  A    between atoms: C_7  and  N_8
REMARK    4  A    between atoms: N_8  and  C_9
REMARK    5  A    between atoms: C_10  and  S_11
REMARK    6  A    between atoms: S_11  and  C_12
REMARK    7  A    between atoms: N_20  and  C_21
REMARK    8  A    between atoms: C_21  and  C_22
REMARK                            x       y       z     vdW  Elec       q    Type
REMARK                         _______ _______ _______ _____ _____    ______ ____
ROOT
ATOM      1  C   UNL     1      13.545  -0.165  28.596  0.00  0.00    +0.000 C 
ATOM      2  C   UNL     1      12.604  -1.003  28.188  0.00  0.00    +0.000 C 
ATOM      3  C   UNL     1      12.049  -1.706  29.321  0.00  0.00    +0.000 C 
ATOM      4  O   UNL     1      11.129  -2.579  29.287  0.00  0.00    +0.000 OA
ATOM      5  N   UNL     1      12.717  -1.244  30.472  0.00  0.00    +0.000 N 
ATOM      6  C   UNL     1      13.660  -0.278  30.047  0.00  0.00    +0.000 C 
ATOM      7  O   UNL     1      14.461   0.373  30.796  0.00  0.00    +0.000 OA
ENDROOT
BRANCH   1   8
ATOM      8  N   UNL     1      14.330   0.707  27.794  0.00  0.00    +0.000 NA
BRANCH   8  12
ATOM      9  C   UNL     1      17.938  -0.827  26.358  0.00  0.00    +0.000 A 
ATOM     10  C   UNL     1      17.928  -0.208  27.590  0.00  0.00    +0.000 A 
ATOM     11  C   UNL     1      16.741   0.300  28.068  0.00  0.00    +0.000 A 
ATOM     12  C   UNL     1      15.588   0.189  27.327  0.00  0.00    +0.000 A 
ATOM     13  C   UNL     1      15.597  -0.431  26.093  0.00  0.00    +0.000 A 
ATOM     14  C   UNL     1      16.770  -0.934  25.619  0.00  0.00    +0.000 A 
BRANCH   9  15
ATOM     15  O   UNL     1      19.117  -1.348  25.847  0.00  0.00    +0.000 OA
BRANCH  15  17
ATOM     16  C   UNL     1      20.086   0.059  24.226  0.00  0.00    +0.000 C 
ATOM     17  C   UNL     1      19.390  -1.263  24.465  0.00  0.00    +0.000 C 
ENDBRANCH  15  17
ENDBRANCH   9  15
ENDBRANCH   8  12
ENDBRANCH   1   8
BRANCH   2  18
ATOM     18  S   UNL     1      12.155  -1.168  26.469  0.00  0.00    +0.000 S 
BRANCH  18  19
ATOM     19  C   UNL     1      10.938   0.048  25.989  0.00  0.00    +0.000 A 
ATOM     20  C   UNL     1       9.828  -0.305  25.247  0.00  0.00    +0.000 A 
ATOM     21  C   UNL     1       8.894   0.662  24.885  0.00  0.00    +0.000 A 
ATOM     22  C   UNL     1       9.052   1.969  25.252  0.00  0.00    +0.000 A 
ATOM     23  C   UNL     1      10.145   2.348  25.990  0.00  0.00    +0.000 A 
ATOM     24  C   UNL     1      11.062   1.378  26.340  0.00  0.00    +0.000 A 
ENDBRANCH  18  19
ENDBRANCH   2  18
BRANCH   5  25
ATOM     25  C   UNL     1      12.470  -1.688  31.829  0.00  0.00    +0.000 C 
BRANCH  25  26
ATOM     26  C   UNL     1      13.447  -2.720  32.267  0.00  0.00    +0.000 A 
ATOM     27  C   UNL     1      14.464  -2.331  33.099  0.00  0.00    +0.000 A 
ATOM     28  C   UNL     1      15.392  -3.239  33.535  0.00  0.00    +0.000 A 
ATOM     29  C   UNL     1      15.309  -4.548  33.139  0.00  0.00    +0.000 A 
ATOM     30  C   UNL     1      14.302  -4.966  32.306  0.00  0.00    +0.000 A 
ATOM     31  C   UNL     1      13.379  -4.031  31.881  0.00  0.00    +0.000 A 
ENDBRANCH  25  26
ENDBRANCH   5  25
TORSDOF 8
ENDMDL
