MODEL 1
REMARK VINA RESULT:      -7.2      0.000      0.000
REMARK  Name = 
REMARK  3 active torsions:
REMARK  status: ('A' for Active; 'I' for Inactive)
REMARK    1  A    between atoms: C_2  and  C_10
REMARK    2  A    between atoms: N_3  and  C_4
REMARK    3  A    between atoms: C_4  and  C_5
REMARK                            x       y       z     vdW  Elec       q    Type
REMARK                         _______ _______ _______ _____ _____    ______ ____
ROOT
ATOM      1  C   UNL     1      16.178  11.066  34.213  0.00  0.00    +0.000 A 
ATOM      2  C   UNL     1      15.887  10.934  32.888  0.00  0.00    +0.000 A 
ATOM      3  C   UNL     1      15.063  11.816  32.330  0.00  0.00    +0.000 A 
ATOM      4  C   UNL     1      14.559  12.805  33.135  0.00  0.00    +0.000 A 
ATOM      5  S   UNL     1      15.270  12.447  34.642  0.00  0.00    +0.000 S 
ATOM      6  C   UNL     1      13.627  13.944  32.870  0.00  0.00    +0.000 C 
ATOM      7  C   UNL     1      13.862  14.469  31.462  0.00  0.00    +0.000 C 
ATOM      8  C   UNL     1      15.267  14.156  31.001  0.00  0.00    +0.000 C 
ATOM      9  C   UNL     1      15.348  12.908  30.176  0.00  0.00    +0.000 C 
ATOM     10  C   UNL     1      14.697  11.728  30.860  0.00  0.00    +0.000 C 
ENDROOT
BRANCH   1  12
ATOM     11  O   UNL     1      17.725   9.305  34.532  0.00  0.00    +0.000 OA
ATOM     12  C   UNL     1      17.057  10.223  35.053  0.00  0.00    +0.000 C 
ATOM     13  N   UNL     1      17.162  10.433  36.448  0.00  0.00    +0.000 NA
BRANCH  13  14
ATOM     14  C   UNL     1      17.988   9.659  37.322  0.00  0.00    +0.000 C 
BRANCH  14  15
ATOM     15  C   UNL     1      19.317  10.293  37.523  0.00  0.00    +0.000 A 
ATOM     16  C   UNL     1      19.635  11.493  38.125  0.00  0.00    +0.000 A 
ATOM     17  C   UNL     1      21.017  11.638  38.063  0.00  0.00    +0.000 A 
ATOM     18  C   UNL     1      21.466  10.489  37.412  0.00  0.00    +0.000 A 
ATOM     19  O   UNL     1      20.441   9.750  37.125  0.00  0.00    +0.000 OA
ENDBRANCH  14  15
ENDBRANCH  13  14
ENDBRANCH   1  12
TORSDOF 3
ENDMDL
MODEL 2
REMARK VINA RESULT:      -6.4      3.079      8.023
REMARK  Name = 
REMARK  3 active torsions:
REMARK  status: ('A' for Active; 'I' for Inactive)
REMARK    1  A    between atoms: C_2  and  C_10
REMARK    2  A    between atoms: N_3  and  C_4
REMARK    3  A    between atoms: C_4  and  C_5
REMARK                            x       y       z     vdW  Elec       q    Type
REMARK                         _______ _______ _______ _____ _____    ______ ____
ROOT
ATOM      1  C   UNL     1      18.103   9.446  37.791  0.00  0.00    +0.000 A 
ATOM      2  C   UNL     1      18.664   8.603  38.705  0.00  0.00    +0.000 A 
ATOM      3  C   UNL     1      18.155   8.572  39.933  0.00  0.00    +0.000 A 
ATOM      4  C   UNL     1      17.093   9.398  40.196  0.00  0.00    +0.000 A 
ATOM      5  S   UNL     1      16.859  10.181  38.700  0.00  0.00    +0.000 S 
ATOM      6  C   UNL     1      16.279   9.633  41.429  0.00  0.00    +0.000 C 
ATOM      7  C   UNL     1      16.145   8.328  42.200  0.00  0.00    +0.000 C 
ATOM      8  C   UNL     1      16.301   7.142  41.276  0.00  0.00    +0.000 C 
ATOM      9  C   UNL     1      17.694   6.590  41.263  0.00  0.00    +0.000 C 
ATOM     10  C   UNL     1      18.730   7.658  40.998  0.00  0.00    +0.000 C 
ENDROOT
BRANCH   1  12
ATOM     11  O   UNL     1      19.686   9.604  36.040  0.00  0.00    +0.000 OA
ATOM     12  C   UNL     1      18.485   9.659  36.378  0.00  0.00    +0.000 C 
ATOM     13  N   UNL     1      17.511   9.926  35.387  0.00  0.00    +0.000 NA
BRANCH  13  14
ATOM     14  C   UNL     1      17.804  10.143  34.004  0.00  0.00    +0.000 C 
BRANCH  14  15
ATOM     15  C   UNL     1      16.674  10.803  33.301  0.00  0.00    +0.000 A 
ATOM     16  C   UNL     1      16.225  10.632  32.007  0.00  0.00    +0.000 A 
ATOM     17  C   UNL     1      15.137  11.480  31.827  0.00  0.00    +0.000 A 
ATOM     18  C   UNL     1      14.987  12.130  33.052  0.00  0.00    +0.000 A 
ATOM     19  O   UNL     1      15.901  11.699  33.863  0.00  0.00    +0.000 OA
ENDBRANCH  14  15
ENDBRANCH  13  14
ENDBRANCH   1  12
TORSDOF 3
ENDMDL
MODEL 3
REMARK VINA RESULT:      -6.2      2.698      8.288
REMARK  Name = 
REMARK  3 active torsions:
REMARK  status: ('A' for Active; 'I' for Inactive)
REMARK    1  A    between atoms: C_2  and  C_10
REMARK    2  A    between atoms: N_3  and  C_4
REMARK    3  A    between atoms: C_4  and  C_5
REMARK                            x       y       z     vdW  Elec       q    Type
REMARK                         _______ _______ _______ _____ _____    ______ ____
ROOT
ATOM      1  C   UNL     1      20.756  10.222  37.065  0.00  0.00    +0.000 A 
ATOM      2  C   UNL     1      21.929   9.828  36.492  0.00  0.00    +0.000 A 
ATOM      3  C   UNL     1      23.050  10.444  36.858  0.00  0.00    +0.000 A 
ATOM      4  C   UNL     1      22.944  11.442  37.793  0.00  0.00    +0.000 A 
ATOM      5  S   UNL     1      21.270  11.465  38.116  0.00  0.00    +0.000 S 
ATOM      6  C   UNL     1      23.959  12.336  38.432  0.00  0.00    +0.000 C 
ATOM      7  C   UNL     1      25.263  11.573  38.608  0.00  0.00    +0.000 C 
ATOM      8  C   UNL     1      25.007  10.085  38.681  0.00  0.00    +0.000 C 
ATOM      9  C   UNL     1      25.184   9.396  37.363  0.00  0.00    +0.000 C 
ATOM     10  C   UNL     1      24.389  10.057  36.261  0.00  0.00    +0.000 C 
ENDROOT
BRANCH   1  12
ATOM     11  O   UNL     1      18.763   9.152  37.759  0.00  0.00    +0.000 OA
ATOM     12  C   UNL     1      19.392   9.697  36.829  0.00  0.00    +0.000 C 
ATOM     13  N   UNL     1      18.777   9.800  35.559  0.00  0.00    +0.000 NA
BRANCH  13  14
ATOM     14  C   UNL     1      17.465   9.317  35.256  0.00  0.00    +0.000 C 
BRANCH  14  15
ATOM     15  C   UNL     1      16.755  10.215  34.309  0.00  0.00    +0.000 A 
ATOM     16  C   UNL     1      15.776  11.154  34.557  0.00  0.00    +0.000 A 
ATOM     17  C   UNL     1      15.434  11.733  33.339  0.00  0.00    +0.000 A 
ATOM     18  C   UNL     1      16.246  11.094  32.402  0.00  0.00    +0.000 A 
ATOM     19  O   UNL     1      16.987  10.228  33.020  0.00  0.00    +0.000 OA
ENDBRANCH  14  15
ENDBRANCH  13  14
ENDBRANCH   1  12
TORSDOF 3
ENDMDL
MODEL 4
REMARK VINA RESULT:      -6.1     18.136     21.146
REMARK  Name = 
REMARK  3 active torsions:
REMARK  status: ('A' for Active; 'I' for Inactive)
REMARK    1  A    between atoms: C_2  and  C_10
REMARK    2  A    between atoms: N_3  and  C_4
REMARK    3  A    between atoms: C_4  and  C_5
REMARK                            x       y       z     vdW  Elec       q    Type
REMARK                         _______ _______ _______ _____ _____    ______ ____
ROOT
ATOM      1  C   UNL     1      33.699  -0.761  33.951  0.00  0.00    +0.000 A 
ATOM      2  C   UNL     1      33.792  -2.035  33.473  0.00  0.00    +0.000 A 
ATOM      3  C   UNL     1      33.677  -3.043  34.333  0.00  0.00    +0.000 A 
ATOM      4  C   UNL     1      33.473  -2.727  35.652  0.00  0.00    +0.000 A 
ATOM      5  S   UNL     1      33.450  -1.023  35.620  0.00  0.00    +0.000 S 
ATOM      6  C   UNL     1      33.300  -3.569  36.876  0.00  0.00    +0.000 C 
ATOM      7  C   UNL     1      32.555  -4.843  36.510  0.00  0.00    +0.000 C 
ATOM      8  C   UNL     1      31.709  -4.633  35.275  0.00  0.00    +0.000 C 
ATOM      9  C   UNL     1      32.390  -5.081  34.017  0.00  0.00    +0.000 C 
ATOM     10  C   UNL     1      33.770  -4.484  33.870  0.00  0.00    +0.000 C 
ENDROOT
BRANCH   1  12
ATOM     11  O   UNL     1      34.243   0.522  32.040  0.00  0.00    +0.000 OA
ATOM     12  C   UNL     1      33.792   0.513  33.204  0.00  0.00    +0.000 C 
ATOM     13  N   UNL     1      33.378   1.735  33.783  0.00  0.00    +0.000 NA
BRANCH  13  14
ATOM     14  C   UNL     1      33.438   3.002  33.124  0.00  0.00    +0.000 C 
BRANCH  14  15
ATOM     15  C   UNL     1      33.664   4.111  34.087  0.00  0.00    +0.000 A 
ATOM     16  C   UNL     1      32.980   5.301  34.231  0.00  0.00    +0.000 A 
ATOM     17  C   UNL     1      33.576   6.002  35.275  0.00  0.00    +0.000 A 
ATOM     18  C   UNL     1      34.611   5.175  35.712  0.00  0.00    +0.000 A 
ATOM     19  O   UNL     1      34.613   4.099  34.990  0.00  0.00    +0.000 OA
ENDBRANCH  14  15
ENDBRANCH  13  14
ENDBRANCH   1  12
TORSDOF 3
ENDMDL
MODEL 5
REMARK VINA RESULT:      -5.9     27.427     29.019
REMARK  Name = 
REMARK  3 active torsions:
REMARK  status: ('A' for Active; 'I' for Inactive)
REMARK    1  A    between atoms: C_2  and  C_10
REMARK    2  A    between atoms: N_3  and  C_4
REMARK    3  A    between atoms: C_4  and  C_5
REMARK                            x       y       z     vdW  Elec       q    Type
REMARK                         _______ _______ _______ _____ _____    ______ ____
ROOT
ATOM      1  C   UNL     1      34.771  20.077  11.861  0.00  0.00    +0.000 A 
ATOM      2  C   UNL     1      33.607  20.462  12.459  0.00  0.00    +0.000 A 
ATOM      3  C   UNL     1      32.751  21.201  11.760  0.00  0.00    +0.000 A 
ATOM      4  C   UNL     1      33.103  21.529  10.475  0.00  0.00    +0.000 A 
ATOM      5  S   UNL     1      34.624  20.778  10.311  0.00  0.00    +0.000 S 
ATOM      6  C   UNL     1      32.414  22.325   9.413  0.00  0.00    +0.000 C 
ATOM      7  C   UNL     1      30.911  22.112   9.518  0.00  0.00    +0.000 C 
ATOM      8  C   UNL     1      30.604  20.787  10.178  0.00  0.00    +0.000 C 
ATOM      9  C   UNL     1      30.340  20.913  11.648  0.00  0.00    +0.000 C 
ATOM     10  C   UNL     1      31.438  21.664  12.363  0.00  0.00    +0.000 C 
ENDROOT
BRANCH   1  12
ATOM     11  O   UNL     1      36.648  18.652  11.658  0.00  0.00    +0.000 OA
ATOM     12  C   UNL     1      35.870  19.261  12.422  0.00  0.00    +0.000 C 
ATOM     13  N   UNL     1      36.065  19.154  13.819  0.00  0.00    +0.000 NA
BRANCH  13  14
ATOM     14  C   UNL     1      37.103  18.386  14.433  0.00  0.00    +0.000 C 
BRANCH  14  15
ATOM     15  C   UNL     1      36.553  17.345  15.338  0.00  0.00    +0.000 A 
ATOM     16  C   UNL     1      35.539  16.435  15.116  0.00  0.00    +0.000 A 
ATOM     17  C   UNL     1      35.398  15.675  16.272  0.00  0.00    +0.000 A 
ATOM     18  C   UNL     1      36.357  16.182  17.149  0.00  0.00    +0.000 A 
ATOM     19  O   UNL     1      36.992  17.143  16.555  0.00  0.00    +0.000 OA
ENDBRANCH  14  15
ENDBRANCH  13  14
ENDBRANCH   1  12
TORSDOF 3
ENDMDL
MODEL 6
REMARK VINA RESULT:      -5.8     19.869     22.840
REMARK  Name = 
REMARK  3 active torsions:
REMARK  status: ('A' for Active; 'I' for Inactive)
REMARK    1  A    between atoms: C_2  and  C_10
REMARK    2  A    between atoms: N_3  and  C_4
REMARK    3  A    between atoms: C_4  and  C_5
REMARK                            x       y       z     vdW  Elec       q    Type
REMARK                         _______ _______ _______ _____ _____    ______ ____
ROOT
ATOM      1  C   UNL     1      32.934  -4.310  33.363  0.00  0.00    +0.000 A 
ATOM      2  C   UNL     1      33.900  -4.505  32.420  0.00  0.00    +0.000 A 
ATOM      3  C   UNL     1      33.881  -5.636  31.720  0.00  0.00    +0.000 A 
ATOM      4  C   UNL     1      32.884  -6.535  32.001  0.00  0.00    +0.000 A 
ATOM      5  S   UNL     1      32.017  -5.744  33.237  0.00  0.00    +0.000 S 
ATOM      6  C   UNL     1      32.550  -7.880  31.436  0.00  0.00    +0.000 C 
ATOM      7  C   UNL     1      32.888  -7.901  29.953  0.00  0.00    +0.000 C 
ATOM      8  C   UNL     1      32.860  -6.504  29.377  0.00  0.00    +0.000 C 
ATOM      9  C   UNL     1      34.214  -5.866  29.323  0.00  0.00    +0.000 C 
ATOM     10  C   UNL     1      34.925  -5.918  30.656  0.00  0.00    +0.000 C 
ENDROOT
BRANCH   1  12
ATOM     11  O   UNL     1      31.925  -3.215  35.200  0.00  0.00    +0.000 OA
ATOM     12  C   UNL     1      32.742  -3.148  34.259  0.00  0.00    +0.000 C 
ATOM     13  N   UNL     1      33.471  -1.950  34.073  0.00  0.00    +0.000 NA
BRANCH  13  14
ATOM     14  C   UNL     1      33.338  -0.789  34.897  0.00  0.00    +0.000 C 
BRANCH  14  15
ATOM     15  C   UNL     1      33.540   0.461  34.119  0.00  0.00    +0.000 A 
ATOM     16  C   UNL     1      33.374   1.774  34.510  0.00  0.00    +0.000 A 
ATOM     17  C   UNL     1      33.688   2.578  33.419  0.00  0.00    +0.000 A 
ATOM     18  C   UNL     1      34.033   1.683  32.407  0.00  0.00    +0.000 A 
ATOM     19  O   UNL     1      33.929   0.476  32.869  0.00  0.00    +0.000 OA
ENDBRANCH  14  15
ENDBRANCH  13  14
ENDBRANCH   1  12
TORSDOF 3
ENDMDL
MODEL 7
REMARK VINA RESULT:      -5.7      3.789      5.669
REMARK  Name = 
REMARK  3 active torsions:
REMARK  status: ('A' for Active; 'I' for Inactive)
REMARK    1  A    between atoms: C_2  and  C_10
REMARK    2  A    between atoms: N_3  and  C_4
REMARK    3  A    between atoms: C_4  and  C_5
REMARK                            x       y       z     vdW  Elec       q    Type
REMARK                         _______ _______ _______ _____ _____    ______ ____
ROOT
ATOM      1  C   UNL     1      20.479  10.085  37.367  0.00  0.00    +0.000 A 
ATOM      2  C   UNL     1      19.737   9.497  36.385  0.00  0.00    +0.000 A 
ATOM      3  C   UNL     1      18.426   9.722  36.362  0.00  0.00    +0.000 A 
ATOM      4  C   UNL     1      17.909  10.536  37.338  0.00  0.00    +0.000 A 
ATOM      5  S   UNL     1      19.294  10.948  38.242  0.00  0.00    +0.000 S 
ATOM      6  C   UNL     1      16.518  11.004  37.628  0.00  0.00    +0.000 C 
ATOM      7  C   UNL     1      15.769  11.197  36.318  0.00  0.00    +0.000 C 
ATOM      8  C   UNL     1      16.732  11.461  35.184  0.00  0.00    +0.000 C 
ATOM      9  C   UNL     1      17.074  10.227  34.407  0.00  0.00    +0.000 C 
ATOM     10  C   UNL     1      17.542   9.101  35.299  0.00  0.00    +0.000 C 
ENDROOT
BRANCH   1  12
ATOM     11  O   UNL     1      22.369   9.392  38.609  0.00  0.00    +0.000 OA
ATOM     12  C   UNL     1      21.937   9.991  37.602  0.00  0.00    +0.000 C 
ATOM     13  N   UNL     1      22.864  10.569  36.704  0.00  0.00    +0.000 NA
BRANCH  13  14
ATOM     14  C   UNL     1      24.284  10.519  36.865  0.00  0.00    +0.000 C 
BRANCH  14  15
ATOM     15  C   UNL     1      24.802  11.735  37.544  0.00  0.00    +0.000 A 
ATOM     16  C   UNL     1      25.405  11.861  38.778  0.00  0.00    +0.000 A 
ATOM     17  C   UNL     1      25.709  13.207  38.959  0.00  0.00    +0.000 A 
ATOM     18  C   UNL     1      25.261  13.831  37.795  0.00  0.00    +0.000 A 
ATOM     19  O   UNL     1      24.747  12.932  37.016  0.00  0.00    +0.000 OA
ENDBRANCH  14  15
ENDBRANCH  13  14
ENDBRANCH   1  12
TORSDOF 3
ENDMDL
MODEL 8
REMARK VINA RESULT:      -5.7     16.964     18.408
REMARK  Name = 
REMARK  3 active torsions:
REMARK  status: ('A' for Active; 'I' for Inactive)
REMARK    1  A    between atoms: C_2  and  C_10
REMARK    2  A    between atoms: N_3  and  C_4
REMARK    3  A    between atoms: C_4  and  C_5
REMARK                            x       y       z     vdW  Elec       q    Type
REMARK                         _______ _______ _______ _____ _____    ______ ____
ROOT
ATOM      1  C   UNL     1      27.783  23.005  27.224  0.00  0.00    +0.000 A 
ATOM      2  C   UNL     1      28.982  22.662  26.674  0.00  0.00    +0.000 A 
ATOM      3  C   UNL     1      29.123  22.754  25.355  0.00  0.00    +0.000 A 
ATOM      4  C   UNL     1      28.040  23.191  24.634  0.00  0.00    +0.000 A 
ATOM      5  S   UNL     1      26.874  23.453  25.850  0.00  0.00    +0.000 S 
ATOM      6  C   UNL     1      27.827  23.415  23.171  0.00  0.00    +0.000 C 
ATOM      7  C   UNL     1      29.122  23.908  22.543  0.00  0.00    +0.000 C 
ATOM      8  C   UNL     1      29.993  24.587  23.575  0.00  0.00    +0.000 C 
ATOM      9  C   UNL     1      31.028  23.674  24.158  0.00  0.00    +0.000 C 
ATOM     10  C   UNL     1      30.429  22.388  24.677  0.00  0.00    +0.000 C 
ENDROOT
BRANCH   1  12
ATOM     11  O   UNL     1      27.578  21.968  29.340  0.00  0.00    +0.000 OA
ATOM     12  C   UNL     1      27.384  22.990  28.649  0.00  0.00    +0.000 C 
ATOM     13  N   UNL     1      26.781  24.117  29.255  0.00  0.00    +0.000 NA
BRANCH  13  14
ATOM     14  C   UNL     1      26.370  24.175  30.623  0.00  0.00    +0.000 C 
BRANCH  14  15
ATOM     15  C   UNL     1      25.326  25.210  30.838  0.00  0.00    +0.000 A 
ATOM     16  C   UNL     1      24.636  25.967  29.913  0.00  0.00    +0.000 A 
ATOM     17  C   UNL     1      23.766  26.795  30.615  0.00  0.00    +0.000 A 
ATOM     18  C   UNL     1      23.986  26.484  31.957  0.00  0.00    +0.000 A 
ATOM     19  O   UNL     1      24.896  25.564  32.024  0.00  0.00    +0.000 OA
ENDBRANCH  14  15
ENDBRANCH  13  14
ENDBRANCH   1  12
TORSDOF 3
ENDMDL
MODEL 9
REMARK VINA RESULT:      -5.5      6.022      8.157
REMARK  Name = 
REMARK  3 active torsions:
REMARK  status: ('A' for Active; 'I' for Inactive)
REMARK    1  A    between atoms: C_2  and  C_10
REMARK    2  A    between atoms: N_3  and  C_4
REMARK    3  A    between atoms: C_4  and  C_5
REMARK                            x       y       z     vdW  Elec       q    Type
REMARK                         _______ _______ _______ _____ _____    ______ ____
ROOT
ATOM      1  C   UNL     1      18.544   9.193  38.967  0.00  0.00    +0.000 A 
ATOM      2  C   UNL     1      17.463   9.666  39.651  0.00  0.00    +0.000 A 
ATOM      3  C   UNL     1      16.935   8.904  40.605  0.00  0.00    +0.000 A 
ATOM      4  C   UNL     1      17.519   7.684  40.833  0.00  0.00    +0.000 A 
ATOM      5  S   UNL     1      18.788   7.668  39.694  0.00  0.00    +0.000 S 
ATOM      6  C   UNL     1      17.211   6.583  41.797  0.00  0.00    +0.000 C 
ATOM      7  C   UNL     1      16.696   7.181  43.097  0.00  0.00    +0.000 C 
ATOM      8  C   UNL     1      17.201   8.595  43.273  0.00  0.00    +0.000 C 
ATOM      9  C   UNL     1      16.219   9.628  42.812  0.00  0.00    +0.000 C 
ATOM     10  C   UNL     1      15.733   9.368  41.405  0.00  0.00    +0.000 C 
ENDROOT
BRANCH   1  12
ATOM     11  O   UNL     1      18.779  10.770  37.219  0.00  0.00    +0.000 OA
ATOM     12  C   UNL     1      19.301   9.845  37.876  0.00  0.00    +0.000 C 
ATOM     13  N   UNL     1      20.619   9.443  37.555  0.00  0.00    +0.000 NA
BRANCH  13  14
ATOM     14  C   UNL     1      21.411  10.024  36.516  0.00  0.00    +0.000 C 
BRANCH  14  15
ATOM     15  C   UNL     1      22.864   9.864  36.779  0.00  0.00    +0.000 A 
ATOM     16  C   UNL     1      23.942  10.417  36.119  0.00  0.00    +0.000 A 
ATOM     17  C   UNL     1      25.096   9.960  36.746  0.00  0.00    +0.000 A 
ATOM     18  C   UNL     1      24.639   9.137  37.774  0.00  0.00    +0.000 A 
ATOM     19  O   UNL     1      23.343   9.119  37.744  0.00  0.00    +0.000 OA
ENDBRANCH  14  15
ENDBRANCH  13  14
ENDBRANCH   1  12
TORSDOF 3
ENDMDL
MODEL 10
REMARK VINA RESULT:      -5.5      2.901      8.227
REMARK  Name = 
REMARK  3 active torsions:
REMARK  status: ('A' for Active; 'I' for Inactive)
REMARK    1  A    between atoms: C_2  and  C_10
REMARK    2  A    between atoms: N_3  and  C_4
REMARK    3  A    between atoms: C_4  and  C_5
REMARK                            x       y       z     vdW  Elec       q    Type
REMARK                         _______ _______ _______ _____ _____    ______ ____
ROOT
ATOM      1  C   UNL     1      20.803  10.624  37.681  0.00  0.00    +0.000 A 
ATOM      2  C   UNL     1      21.122  11.731  38.411  0.00  0.00    +0.000 A 
ATOM      3  C   UNL     1      22.406  11.980  38.656  0.00  0.00    +0.000 A 
ATOM      4  C   UNL     1      23.326  11.095  38.154  0.00  0.00    +0.000 A 
ATOM      5  S   UNL     1      22.340   9.955  37.358  0.00  0.00    +0.000 S 
ATOM      6  C   UNL     1      24.819  11.045  38.224  0.00  0.00    +0.000 C 
ATOM      7  C   UNL     1      25.372  12.462  38.202  0.00  0.00    +0.000 C 
ATOM      8  C   UNL     1      24.401  13.405  37.529  0.00  0.00    +0.000 C 
ATOM      9  C   UNL     1      23.523  14.133  38.501  0.00  0.00    +0.000 C 
ATOM     10  C   UNL     1      22.831  13.193  39.460  0.00  0.00    +0.000 C 
ENDROOT
BRANCH   1  12
ATOM     11  O   UNL     1      18.498  10.255  38.062  0.00  0.00    +0.000 OA
ATOM     12  C   UNL     1      19.464  10.139  37.279  0.00  0.00    +0.000 C 
ATOM     13  N   UNL     1      19.250   9.541  36.016  0.00  0.00    +0.000 NA
BRANCH  13  14
ATOM     14  C   UNL     1      17.987   9.049  35.560  0.00  0.00    +0.000 C 
BRANCH  14  15
ATOM     15  C   UNL     1      17.223  10.093  34.829  0.00  0.00    +0.000 A 
ATOM     16  C   UNL     1      17.200  10.380  33.480  0.00  0.00    +0.000 A 
ATOM     17  C   UNL     1      16.327  11.448  33.295  0.00  0.00    +0.000 A 
ATOM     18  C   UNL     1      15.862  11.752  34.574  0.00  0.00    +0.000 A 
ATOM     19  O   UNL     1      16.413  10.937  35.418  0.00  0.00    +0.000 OA
ENDBRANCH  14  15
ENDBRANCH  13  14
ENDBRANCH   1  12
TORSDOF 3
ENDMDL
