MODEL 1
REMARK VINA RESULT:      -6.9      0.000      0.000
REMARK  Name = 
REMARK  3 active torsions:
REMARK  status: ('A' for Active; 'I' for Inactive)
REMARK    1  A    between atoms: C_2  and  C_4
REMARK    2  A    between atoms: C_4  and  C_5
REMARK    3  A    between atoms: C_5  and  C_7
REMARK                            x       y       z     vdW  Elec       q    Type
REMARK                         _______ _______ _______ _____ _____    ______ ____
ROOT
ATOM      1  C   UNL     1      14.510  11.920  36.535  0.00  0.00    +0.000 A 
ATOM      2  C   UNL     1      13.168  11.972  36.527  0.00  0.00    +0.000 A 
ATOM      3  C   UNL     1      12.441  11.370  37.551  0.00  0.00    +0.000 A 
ATOM      4  N   UNL     1      11.001  11.426  37.544  0.00  0.00    +0.000 NA
ATOM      5  N   UNL     1      13.103  10.755  38.516  0.00  0.00    +0.000 NA
ATOM      6  C   UNL     1      14.445  10.703  38.524  0.00  0.00    +0.000 A 
ATOM      7  N   UNL     1      15.271  10.137  39.397  0.00  0.00    +0.000 NA
ATOM      8  C   UNL     1      16.520  10.333  39.000  0.00  0.00    +0.000 A 
ATOM      9  C   UNL     1      17.735   9.965  39.524  0.00  0.00    +0.000 A 
ATOM     10  C   UNL     1      18.890  10.328  38.861  0.00  0.00    +0.000 A 
ATOM     11  C   UNL     1      18.851  11.048  37.689  0.00  0.00    +0.000 A 
ATOM     12  C   UNL     1      17.606  11.395  37.202  0.00  0.00    +0.000 A 
ATOM     13  C   UNL     1      16.442  11.052  37.834  0.00  0.00    +0.000 A 
ATOM     14  N   UNL     1      15.156  11.295  37.518  0.00  0.00    +0.000 N 
ENDROOT
BRANCH   1  15
ATOM     15  C   UNL     1      15.383  12.581  35.397  0.00  0.00    +0.000 C 
ATOM     16  C   UNL     1      14.164  13.507  34.799  0.00  0.00    +0.000 C 
BRANCH  15  17
ATOM     17  C   UNL     1      15.207  11.400  34.294  0.00  0.00    +0.000 C 
BRANCH  17  19
ATOM     18  C   UNL     1      17.357  10.298  33.802  0.00  0.00    +0.000 C 
ATOM     19  C   UNL     1      16.383  11.366  33.409  0.00  0.00    +0.000 C 
ATOM     20  C   UNL     1      16.042  11.352  31.939  0.00  0.00    +0.000 C 
ENDBRANCH  17  19
ENDBRANCH  15  17
ENDBRANCH   1  15
TORSDOF 3
ENDMDL
MODEL 2
REMARK VINA RESULT:      -6.2     19.904     21.822
REMARK  Name = 
REMARK  3 active torsions:
REMARK  status: ('A' for Active; 'I' for Inactive)
REMARK    1  A    between atoms: C_2  and  C_4
REMARK    2  A    between atoms: C_4  and  C_5
REMARK    3  A    between atoms: C_5  and  C_7
REMARK                            x       y       z     vdW  Elec       q    Type
REMARK                         _______ _______ _______ _____ _____    ______ ____
ROOT
ATOM      1  C   UNL     1      27.752  23.726  24.023  0.00  0.00    +0.000 A 
ATOM      2  C   UNL     1      27.964  24.063  22.739  0.00  0.00    +0.000 A 
ATOM      3  C   UNL     1      29.265  24.182  22.256  0.00  0.00    +0.000 A 
ATOM      4  N   UNL     1      29.493  24.544  20.880  0.00  0.00    +0.000 NA
ATOM      5  N   UNL     1      30.269  23.959  23.087  0.00  0.00    +0.000 NA
ATOM      6  C   UNL     1      30.057  23.622  24.370  0.00  0.00    +0.000 A 
ATOM      7  N   UNL     1      30.928  23.363  25.339  0.00  0.00    +0.000 NA
ATOM      8  C   UNL     1      30.266  23.077  26.450  0.00  0.00    +0.000 A 
ATOM      9  C   UNL     1      30.672  22.745  27.719  0.00  0.00    +0.000 A 
ATOM     10  C   UNL     1      29.718  22.497  28.686  0.00  0.00    +0.000 A 
ATOM     11  C   UNL     1      28.373  22.577  28.408  0.00  0.00    +0.000 A 
ATOM     12  C   UNL     1      28.015  22.915  27.118  0.00  0.00    +0.000 A 
ATOM     13  C   UNL     1      28.933  23.166  26.136  0.00  0.00    +0.000 A 
ATOM     14  N   UNL     1      28.780  23.504  24.841  0.00  0.00    +0.000 N 
ENDROOT
BRANCH   1  15
ATOM     15  C   UNL     1      26.299  23.580  24.624  0.00  0.00    +0.000 C 
ATOM     16  C   UNL     1      25.598  23.143  23.203  0.00  0.00    +0.000 C 
BRANCH  15  17
ATOM     17  C   UNL     1      25.873  25.144  24.506  0.00  0.00    +0.000 C 
BRANCH  17  19
ATOM     18  C   UNL     1      25.060  24.728  26.796  0.00  0.00    +0.000 C 
ATOM     19  C   UNL     1      25.681  25.711  25.852  0.00  0.00    +0.000 C 
ATOM     20  C   UNL     1      26.908  26.385  26.413  0.00  0.00    +0.000 C 
ENDBRANCH  17  19
ENDBRANCH  15  17
ENDBRANCH   1  15
TORSDOF 3
ENDMDL
MODEL 3
REMARK VINA RESULT:      -6.1      2.920      5.388
REMARK  Name = 
REMARK  3 active torsions:
REMARK  status: ('A' for Active; 'I' for Inactive)
REMARK    1  A    between atoms: C_2  and  C_4
REMARK    2  A    between atoms: C_4  and  C_5
REMARK    3  A    between atoms: C_5  and  C_7
REMARK                            x       y       z     vdW  Elec       q    Type
REMARK                         _______ _______ _______ _____ _____    ______ ____
ROOT
ATOM      1  C   UNL     1      18.532   9.868  37.486  0.00  0.00    +0.000 A 
ATOM      2  C   UNL     1      19.608   9.933  36.682  0.00  0.00    +0.000 A 
ATOM      3  C   UNL     1      20.888   9.850  37.224  0.00  0.00    +0.000 A 
ATOM      4  N   UNL     1      22.042   9.919  36.364  0.00  0.00    +0.000 NA
ATOM      5  N   UNL     1      21.010   9.708  38.533  0.00  0.00    +0.000 NA
ATOM      6  C   UNL     1      19.936   9.643  39.336  0.00  0.00    +0.000 A 
ATOM      7  N   UNL     1      19.864   9.505  40.655  0.00  0.00    +0.000 NA
ATOM      8  C   UNL     1      18.590   9.494  41.019  0.00  0.00    +0.000 A 
ATOM      9  C   UNL     1      17.969   9.380  42.239  0.00  0.00    +0.000 A 
ATOM     10  C   UNL     1      16.590   9.403  42.295  0.00  0.00    +0.000 A 
ATOM     11  C   UNL     1      15.825   9.538  41.160  0.00  0.00    +0.000 A 
ATOM     12  C   UNL     1      16.495   9.650  39.957  0.00  0.00    +0.000 A 
ATOM     13  C   UNL     1      17.860   9.630  39.866  0.00  0.00    +0.000 A 
ATOM     14  N   UNL     1      18.681   9.724  38.802  0.00  0.00    +0.000 N 
ENDROOT
BRANCH   1  15
ATOM     15  C   UNL     1      17.059   9.961  36.925  0.00  0.00    +0.000 C 
ATOM     16  C   UNL     1      17.406   9.247  35.486  0.00  0.00    +0.000 C 
BRANCH  15  17
ATOM     17  C   UNL     1      17.158  11.478  36.347  0.00  0.00    +0.000 C 
BRANCH  17  19
ATOM     18  C   UNL     1      15.190  12.214  35.057  0.00  0.00    +0.000 C 
ATOM     19  C   UNL     1      15.834  12.120  36.406  0.00  0.00    +0.000 C 
ATOM     20  C   UNL     1      14.923  11.548  37.463  0.00  0.00    +0.000 C 
ENDBRANCH  17  19
ENDBRANCH  15  17
ENDBRANCH   1  15
TORSDOF 3
ENDMDL
MODEL 4
REMARK VINA RESULT:      -6.0     19.415     21.328
REMARK  Name = 
REMARK  3 active torsions:
REMARK  status: ('A' for Active; 'I' for Inactive)
REMARK    1  A    between atoms: C_2  and  C_4
REMARK    2  A    between atoms: C_4  and  C_5
REMARK    3  A    between atoms: C_5  and  C_7
REMARK                            x       y       z     vdW  Elec       q    Type
REMARK                         _______ _______ _______ _____ _____    ______ ____
ROOT
ATOM      1  C   UNL     1      28.021  24.165  24.477  0.00  0.00    +0.000 A 
ATOM      2  C   UNL     1      27.447  23.726  23.343  0.00  0.00    +0.000 A 
ATOM      3  C   UNL     1      26.107  23.350  23.342  0.00  0.00    +0.000 A 
ATOM      4  N   UNL     1      25.490  22.879  22.127  0.00  0.00    +0.000 NA
ATOM      5  N   UNL     1      25.427  23.436  24.473  0.00  0.00    +0.000 NA
ATOM      6  C   UNL     1      26.000  23.875  25.605  0.00  0.00    +0.000 A 
ATOM      7  N   UNL     1      25.483  24.026  26.820  0.00  0.00    +0.000 NA
ATOM      8  C   UNL     1      26.421  24.486  27.634  0.00  0.00    +0.000 A 
ATOM      9  C   UNL     1      26.422  24.809  28.969  0.00  0.00    +0.000 A 
ATOM     10  C   UNL     1      27.586  25.276  29.546  0.00  0.00    +0.000 A 
ATOM     11  C   UNL     1      28.743  25.422  28.817  0.00  0.00    +0.000 A 
ATOM     12  C   UNL     1      28.692  25.084  27.479  0.00  0.00    +0.000 A 
ATOM     13  C   UNL     1      27.556  24.619  26.875  0.00  0.00    +0.000 A 
ATOM     14  N   UNL     1      27.315  24.244  25.604  0.00  0.00    +0.000 N 
ENDROOT
BRANCH   1  15
ATOM     15  C   UNL     1      29.537  24.601  24.536  0.00  0.00    +0.000 C 
ATOM     16  C   UNL     1      29.633  25.010  22.947  0.00  0.00    +0.000 C 
BRANCH  15  17
ATOM     17  C   UNL     1      30.181  23.122  24.331  0.00  0.00    +0.000 C 
BRANCH  17  19
ATOM     18  C   UNL     1      31.913  23.996  25.853  0.00  0.00    +0.000 C 
ATOM     19  C   UNL     1      31.087  22.813  25.450  0.00  0.00    +0.000 C 
ATOM     20  C   UNL     1      30.410  22.133  26.614  0.00  0.00    +0.000 C 
ENDBRANCH  17  19
ENDBRANCH  15  17
ENDBRANCH   1  15
TORSDOF 3
ENDMDL
MODEL 5
REMARK VINA RESULT:      -6.0     19.182     21.383
REMARK  Name = 
REMARK  3 active torsions:
REMARK  status: ('A' for Active; 'I' for Inactive)
REMARK    1  A    between atoms: C_2  and  C_4
REMARK    2  A    between atoms: C_4  and  C_5
REMARK    3  A    between atoms: C_5  and  C_7
REMARK                            x       y       z     vdW  Elec       q    Type
REMARK                         _______ _______ _______ _____ _____    ______ ____
ROOT
ATOM      1  C   UNL     1      29.030  22.880  27.052  0.00  0.00    +0.000 A 
ATOM      2  C   UNL     1      28.867  22.786  28.383  0.00  0.00    +0.000 A 
ATOM      3  C   UNL     1      27.604  22.955  28.944  0.00  0.00    +0.000 A 
ATOM      4  N   UNL     1      27.428  22.855  30.371  0.00  0.00    +0.000 NA
ATOM      5  N   UNL     1      26.585  23.206  28.139  0.00  0.00    +0.000 NA
ATOM      6  C   UNL     1      26.747  23.299  26.809  0.00  0.00    +0.000 A 
ATOM      7  N   UNL     1      25.855  23.543  25.856  0.00  0.00    +0.000 NA
ATOM      8  C   UNL     1      26.467  23.547  24.682  0.00  0.00    +0.000 A 
ATOM      9  C   UNL     1      26.022  23.745  23.398  0.00  0.00    +0.000 A 
ATOM     10  C   UNL     1      26.926  23.685  22.356  0.00  0.00    +0.000 A 
ATOM     11  C   UNL     1      28.261  23.432  22.575  0.00  0.00    +0.000 A 
ATOM     12  C   UNL     1      28.660  23.240  23.883  0.00  0.00    +0.000 A 
ATOM     13  C   UNL     1      27.791  23.292  24.938  0.00  0.00    +0.000 A 
ATOM     14  N   UNL     1      27.988  23.133  26.261  0.00  0.00    +0.000 N 
ENDROOT
BRANCH   1  15
ATOM     15  C   UNL     1      30.439  22.702  26.364  0.00  0.00    +0.000 C 
ATOM     16  C   UNL     1      31.158  22.025  27.678  0.00  0.00    +0.000 C 
BRANCH  15  17
ATOM     17  C   UNL     1      31.001  24.198  26.661  0.00  0.00    +0.000 C 
BRANCH  17  19
ATOM     18  C   UNL     1      32.132  23.595  24.555  0.00  0.00    +0.000 C 
ATOM     19  C   UNL     1      31.732  24.699  25.485  0.00  0.00    +0.000 C 
ATOM     20  C   UNL     1      31.051  25.850  24.787  0.00  0.00    +0.000 C 
ENDBRANCH  17  19
ENDBRANCH  15  17
ENDBRANCH   1  15
TORSDOF 3
ENDMDL
MODEL 6
REMARK VINA RESULT:      -5.9     21.361     23.425
REMARK  Name = 
REMARK  3 active torsions:
REMARK  status: ('A' for Active; 'I' for Inactive)
REMARK    1  A    between atoms: C_2  and  C_4
REMARK    2  A    between atoms: C_4  and  C_5
REMARK    3  A    between atoms: C_5  and  C_7
REMARK                            x       y       z     vdW  Elec       q    Type
REMARK                         _______ _______ _______ _____ _____    ______ ____
ROOT
ATOM      1  C   UNL     1      20.259  -8.398  26.408  0.00  0.00    +0.000 A 
ATOM      2  C   UNL     1      19.199  -7.635  26.725  0.00  0.00    +0.000 A 
ATOM      3  C   UNL     1      19.115  -6.328  26.251  0.00  0.00    +0.000 A 
ATOM      4  N   UNL     1      17.978  -5.509  26.591  0.00  0.00    +0.000 NA
ATOM      5  N   UNL     1      20.095  -5.868  25.492  0.00  0.00    +0.000 NA
ATOM      6  C   UNL     1      21.154  -6.630  25.175  0.00  0.00    +0.000 A 
ATOM      7  N   UNL     1      22.221  -6.344  24.436  0.00  0.00    +0.000 NA
ATOM      8  C   UNL     1      23.016  -7.403  24.397  0.00  0.00    +0.000 A 
ATOM      9  C   UNL     1      24.223  -7.641  23.787  0.00  0.00    +0.000 A 
ATOM     10  C   UNL     1      24.818  -8.878  23.935  0.00  0.00    +0.000 A 
ATOM     11  C   UNL     1      24.230  -9.875  24.679  0.00  0.00    +0.000 A 
ATOM     12  C   UNL     1      23.017  -9.587  25.272  0.00  0.00    +0.000 A 
ATOM     13  C   UNL     1      22.399  -8.373  25.145  0.00  0.00    +0.000 A 
ATOM     14  N   UNL     1      21.235  -7.913  25.641  0.00  0.00    +0.000 N 
ENDROOT
BRANCH   1  15
ATOM     15  C   UNL     1      20.408  -9.883  26.920  0.00  0.00    +0.000 C 
ATOM     16  C   UNL     1      19.208 -10.485  25.972  0.00  0.00    +0.000 C 
BRANCH  15  17
ATOM     17  C   UNL     1      19.472  -9.737  28.241  0.00  0.00    +0.000 C 
BRANCH  17  19
ATOM     18  C   UNL     1      19.557  -9.698  30.705  0.00  0.00    +0.000 C 
ATOM     19  C   UNL     1      20.238 -10.119  29.440  0.00  0.00    +0.000 C 
ATOM     20  C   UNL     1      20.678 -11.562  29.450  0.00  0.00    +0.000 C 
ENDBRANCH  17  19
ENDBRANCH  15  17
ENDBRANCH   1  15
TORSDOF 3
ENDMDL
MODEL 7
REMARK VINA RESULT:      -5.8     22.089     24.406
REMARK  Name = 
REMARK  3 active torsions:
REMARK  status: ('A' for Active; 'I' for Inactive)
REMARK    1  A    between atoms: C_2  and  C_4
REMARK    2  A    between atoms: C_4  and  C_5
REMARK    3  A    between atoms: C_5  and  C_7
REMARK                            x       y       z     vdW  Elec       q    Type
REMARK                         _______ _______ _______ _____ _____    ______ ____
ROOT
ATOM      1  C   UNL     1      32.457  -5.050  33.526  0.00  0.00    +0.000 A 
ATOM      2  C   UNL     1      31.753  -5.257  34.651  0.00  0.00    +0.000 A 
ATOM      3  C   UNL     1      30.853  -6.318  34.725  0.00  0.00    +0.000 A 
ATOM      4  N   UNL     1      30.097  -6.541  35.931  0.00  0.00    +0.000 NA
ATOM      5  N   UNL     1      30.715  -7.101  33.669  0.00  0.00    +0.000 NA
ATOM      6  C   UNL     1      31.419  -6.895  32.544  0.00  0.00    +0.000 A 
ATOM      7  N   UNL     1      31.413  -7.567  31.398  0.00  0.00    +0.000 NA
ATOM      8  C   UNL     1      32.270  -7.001  30.561  0.00  0.00    +0.000 A 
ATOM      9  C   UNL     1      32.643  -7.290  29.271  0.00  0.00    +0.000 A 
ATOM     10  C   UNL     1      33.585  -6.494  28.650  0.00  0.00    +0.000 A 
ATOM     11  C   UNL     1      34.156  -5.420  29.293  0.00  0.00    +0.000 A 
ATOM     12  C   UNL     1      33.749  -5.171  30.589  0.00  0.00    +0.000 A 
ATOM     13  C   UNL     1      32.819  -5.939  31.234  0.00  0.00    +0.000 A 
ATOM     14  N   UNL     1      32.302  -5.854  32.475  0.00  0.00    +0.000 N 
ENDROOT
BRANCH   1  15
ATOM     15  C   UNL     1      33.487  -3.862  33.387  0.00  0.00    +0.000 C 
ATOM     16  C   UNL     1      34.485  -4.394  34.579  0.00  0.00    +0.000 C 
BRANCH  15  17
ATOM     17  C   UNL     1      32.702  -2.801  34.335  0.00  0.00    +0.000 C 
BRANCH  17  19
ATOM     18  C   UNL     1      33.925  -0.916  33.320  0.00  0.00    +0.000 C 
ATOM     19  C   UNL     1      33.557  -1.628  34.585  0.00  0.00    +0.000 C 
ATOM     20  C   UNL     1      33.033  -0.707  35.659  0.00  0.00    +0.000 C 
ENDBRANCH  17  19
ENDBRANCH  15  17
ENDBRANCH   1  15
TORSDOF 3
ENDMDL
MODEL 8
REMARK VINA RESULT:      -5.8      4.005      6.287
REMARK  Name = 
REMARK  3 active torsions:
REMARK  status: ('A' for Active; 'I' for Inactive)
REMARK    1  A    between atoms: C_2  and  C_4
REMARK    2  A    between atoms: C_4  and  C_5
REMARK    3  A    between atoms: C_5  and  C_7
REMARK                            x       y       z     vdW  Elec       q    Type
REMARK                         _______ _______ _______ _____ _____    ______ ____
ROOT
ATOM      1  C   UNL     1      19.760   9.832  38.634  0.00  0.00    +0.000 A 
ATOM      2  C   UNL     1      18.965   9.520  39.672  0.00  0.00    +0.000 A 
ATOM      3  C   UNL     1      19.487   8.845  40.772  0.00  0.00    +0.000 A 
ATOM      4  N   UNL     1      18.636   8.510  41.885  0.00  0.00    +0.000 NA
ATOM      5  N   UNL     1      20.770   8.524  40.763  0.00  0.00    +0.000 NA
ATOM      6  C   UNL     1      21.565   8.836  39.726  0.00  0.00    +0.000 A 
ATOM      7  N   UNL     1      22.859   8.598  39.542  0.00  0.00    +0.000 NA
ATOM      8  C   UNL     1      23.224   9.084  38.365  0.00  0.00    +0.000 A 
ATOM      9  C   UNL     1      24.423   9.107  37.696  0.00  0.00    +0.000 A 
ATOM     10  C   UNL     1      24.487   9.704  36.452  0.00  0.00    +0.000 A 
ATOM     11  C   UNL     1      23.379  10.273  35.869  0.00  0.00    +0.000 A 
ATOM     12  C   UNL     1      22.196  10.224  36.581  0.00  0.00    +0.000 A 
ATOM     13  C   UNL     1      22.098   9.642  37.815  0.00  0.00    +0.000 A 
ATOM     14  N   UNL     1      21.050   9.499  38.649  0.00  0.00    +0.000 N 
ENDROOT
BRANCH   1  15
ATOM     15  C   UNL     1      19.219  10.593  37.361  0.00  0.00    +0.000 C 
ATOM     16  C   UNL     1      19.148  12.064  38.091  0.00  0.00    +0.000 C 
BRANCH  15  17
ATOM     17  C   UNL     1      17.643  10.260  37.580  0.00  0.00    +0.000 C 
BRANCH  17  19
ATOM     18  C   UNL     1      16.653  11.188  35.521  0.00  0.00    +0.000 C 
ATOM     19  C   UNL     1      17.014   9.951  36.285  0.00  0.00    +0.000 C 
ATOM     20  C   UNL     1      17.776   8.942  35.461  0.00  0.00    +0.000 C 
ENDBRANCH  17  19
ENDBRANCH  15  17
ENDBRANCH   1  15
TORSDOF 3
ENDMDL
MODEL 9
REMARK VINA RESULT:      -5.7      3.855      6.063
REMARK  Name = 
REMARK  3 active torsions:
REMARK  status: ('A' for Active; 'I' for Inactive)
REMARK    1  A    between atoms: C_2  and  C_4
REMARK    2  A    between atoms: C_4  and  C_5
REMARK    3  A    between atoms: C_5  and  C_7
REMARK                            x       y       z     vdW  Elec       q    Type
REMARK                         _______ _______ _______ _____ _____    ______ ____
ROOT
ATOM      1  C   UNL     1      20.080   9.842  37.605  0.00  0.00    +0.000 A 
ATOM      2  C   UNL     1      19.672   9.834  36.324  0.00  0.00    +0.000 A 
ATOM      3  C   UNL     1      18.315   9.739  36.027  0.00  0.00    +0.000 A 
ATOM      4  N   UNL     1      17.875   9.731  34.654  0.00  0.00    +0.000 NA
ATOM      5  N   UNL     1      17.454   9.656  37.027  0.00  0.00    +0.000 NA
ATOM      6  C   UNL     1      17.862   9.664  38.307  0.00  0.00    +0.000 A 
ATOM      7  N   UNL     1      17.154   9.590  39.428  0.00  0.00    +0.000 NA
ATOM      8  C   UNL     1      17.979   9.630  40.464  0.00  0.00    +0.000 A 
ATOM      9  C   UNL     1      17.777   9.587  41.821  0.00  0.00    +0.000 A 
ATOM     10  C   UNL     1      18.867   9.651  42.666  0.00  0.00    +0.000 A 
ATOM     11  C   UNL     1      20.149   9.756  42.179  0.00  0.00    +0.000 A 
ATOM     12  C   UNL     1      20.302   9.795  40.807  0.00  0.00    +0.000 A 
ATOM     13  C   UNL     1      19.244   9.735  39.942  0.00  0.00    +0.000 A 
ATOM     14  N   UNL     1      19.194   9.758  38.596  0.00  0.00    +0.000 N 
ENDROOT
BRANCH   1  15
ATOM     15  C   UNL     1      21.605   9.944  37.999  0.00  0.00    +0.000 C 
ATOM     16  C   UNL     1      21.669  11.584  37.909  0.00  0.00    +0.000 C 
BRANCH  15  17
ATOM     17  C   UNL     1      22.216   9.706  36.511  0.00  0.00    +0.000 C 
BRANCH  17  19
ATOM     18  C   UNL     1      24.576  10.159  35.960  0.00  0.00    +0.000 C 
ATOM     19  C   UNL     1      23.604   9.225  36.612  0.00  0.00    +0.000 C 
ATOM     20  C   UNL     1      24.009   8.820  38.008  0.00  0.00    +0.000 C 
ENDBRANCH  17  19
ENDBRANCH  15  17
ENDBRANCH   1  15
TORSDOF 3
ENDMDL
MODEL 10
REMARK VINA RESULT:      -5.7     17.628     19.590
REMARK  Name = 
REMARK  3 active torsions:
REMARK  status: ('A' for Active; 'I' for Inactive)
REMARK    1  A    between atoms: C_2  and  C_4
REMARK    2  A    between atoms: C_4  and  C_5
REMARK    3  A    between atoms: C_5  and  C_7
REMARK                            x       y       z     vdW  Elec       q    Type
REMARK                         _______ _______ _______ _____ _____    ______ ____
ROOT
ATOM      1  C   UNL     1      26.358  23.603  29.232  0.00  0.00    +0.000 A 
ATOM      2  C   UNL     1      26.086  24.079  30.459  0.00  0.00    +0.000 A 
ATOM      3  C   UNL     1      25.301  25.220  30.605  0.00  0.00    +0.000 A 
ATOM      4  N   UNL     1      25.008  25.732  31.920  0.00  0.00    +0.000 NA
ATOM      5  N   UNL     1      24.840  25.811  29.516  0.00  0.00    +0.000 NA
ATOM      6  C   UNL     1      25.112  25.335  28.290  0.00  0.00    +0.000 A 
ATOM      7  N   UNL     1      24.742  25.789  27.097  0.00  0.00    +0.000 NA
ATOM      8  C   UNL     1      25.248  25.001  26.160  0.00  0.00    +0.000 A 
ATOM      9  C   UNL     1      25.176  25.018  24.788  0.00  0.00    +0.000 A 
ATOM     10  C   UNL     1      25.826  24.034  24.070  0.00  0.00    +0.000 A 
ATOM     11  C   UNL     1      26.544  23.041  24.695  0.00  0.00    +0.000 A 
ATOM     12  C   UNL     1      26.587  23.068  26.075  0.00  0.00    +0.000 A 
ATOM     13  C   UNL     1      25.954  24.026  26.818  0.00  0.00    +0.000 A 
ATOM     14  N   UNL     1      25.882  24.215  28.149  0.00  0.00    +0.000 N 
ENDROOT
BRANCH   1  15
ATOM     15  C   UNL     1      27.246  22.316  29.009  0.00  0.00    +0.000 C 
ATOM     16  C   UNL     1      26.747  21.557  30.379  0.00  0.00    +0.000 C 
BRANCH  15  17
ATOM     17  C   UNL     1      28.613  22.896  29.670  0.00  0.00    +0.000 C 
BRANCH  17  19
ATOM     18  C   UNL     1      29.713  24.100  27.819  0.00  0.00    +0.000 C 
ATOM     19  C   UNL     1      29.698  22.869  28.673  0.00  0.00    +0.000 C 
ATOM     20  C   UNL     1      31.049  22.526  29.250  0.00  0.00    +0.000 C 
ENDBRANCH  17  19
ENDBRANCH  15  17
ENDBRANCH   1  15
TORSDOF 3
ENDMDL
