MODEL 1
REMARK VINA RESULT:      -8.7      0.000      0.000
REMARK  Name = 
REMARK  1 active torsions:
REMARK  status: ('A' for Active; 'I' for Inactive)
REMARK    1  A    between atoms: C_3  and  C_4
REMARK                            x       y       z     vdW  Elec       q    Type
REMARK                         _______ _______ _______ _____ _____    ______ ____
ROOT
ATOM      1  C   UNL     1      15.689  12.306  35.563  0.00  0.00    +0.000 C 
ATOM      2  C   UNL     1      15.636  11.812  34.340  0.00  0.00    +0.000 C 
ATOM      3  C   UNL     1      16.206  10.588  33.797  0.00  0.00    +0.000 C 
ATOM      4  O   UNL     1      16.874   9.772  34.442  0.00  0.00    +0.000 OA
ATOM      5  N   UNL     1      15.833  10.543  32.403  0.00  0.00    +0.000 NA
ATOM      6  C   UNL     1      15.064  11.682  32.072  0.00  0.00    +0.000 A 
ATOM      7  N   UNL     1      14.500  12.059  30.886  0.00  0.00    +0.000 NA
ATOM      8  C   UNL     1      13.794  13.193  30.768  0.00  0.00    +0.000 A 
ATOM      9  C   UNL     1      13.640  13.991  31.881  0.00  0.00    +0.000 A 
ATOM     10  C   UNL     1      14.211  13.616  33.095  0.00  0.00    +0.000 A 
ATOM     11  C   UNL     1      14.934  12.447  33.202  0.00  0.00    +0.000 A 
ENDROOT
BRANCH   1  14
ATOM     12  C   UNL     1      14.348  11.089  38.005  0.00  0.00    +0.000 C 
ATOM     13  C   UNL     1      15.825  11.008  37.756  0.00  0.00    +0.000 A 
ATOM     14  C   UNL     1      16.401  11.596  36.616  0.00  0.00    +0.000 A 
ATOM     15  N   UNL     1      17.708  11.318  36.741  0.00  0.00    +0.000 NA
ATOM     16  C   UNL     1      17.968  10.615  37.857  0.00  0.00    +0.000 A 
ATOM     17  C   UNL     1      16.788  10.403  38.522  0.00  0.00    +0.000 A 
ATOM     18  C   UNL     1      16.649   9.667  39.802  0.00  0.00    +0.000 C 
ATOM     19  C   UNL     1      17.967   9.433  40.476  0.00  0.00    +0.000 C 
ATOM     20  C   UNL     1      19.110  10.201  39.922  0.00  0.00    +0.000 C 
ATOM     21  C   UNL     1      19.241  10.081  38.420  0.00  0.00    +0.000 C 
ENDBRANCH   1  14
TORSDOF 1
ENDMDL
MODEL 2
REMARK VINA RESULT:      -8.2      3.132      4.449
REMARK  Name = 
REMARK  1 active torsions:
REMARK  status: ('A' for Active; 'I' for Inactive)
REMARK    1  A    between atoms: C_3  and  C_4
REMARK                            x       y       z     vdW  Elec       q    Type
REMARK                         _______ _______ _______ _____ _____    ______ ____
ROOT
ATOM      1  C   UNL     1      16.452  10.535  38.022  0.00  0.00    +0.000 C 
ATOM      2  C   UNL     1      15.698  11.389  37.355  0.00  0.00    +0.000 C 
ATOM      3  C   UNL     1      16.074  12.450  36.432  0.00  0.00    +0.000 C 
ATOM      4  O   UNL     1      17.234  12.733  36.114  0.00  0.00    +0.000 OA
ATOM      5  N   UNL     1      14.845  13.068  35.993  0.00  0.00    +0.000 NA
ATOM      6  C   UNL     1      13.740  12.433  36.605  0.00  0.00    +0.000 A 
ATOM      7  N   UNL     1      12.400  12.676  36.490  0.00  0.00    +0.000 NA
ATOM      8  C   UNL     1      11.491  11.955  37.162  0.00  0.00    +0.000 A 
ATOM      9  C   UNL     1      11.932  10.944  37.988  0.00  0.00    +0.000 A 
ATOM     10  C   UNL     1      13.297  10.688  38.112  0.00  0.00    +0.000 A 
ATOM     11  C   UNL     1      14.219  11.438  37.416  0.00  0.00    +0.000 A 
ENDROOT
BRANCH   1  14
ATOM     12  C   UNL     1      17.997   9.011  35.892  0.00  0.00    +0.000 C 
ATOM     13  C   UNL     1      18.658   9.890  36.913  0.00  0.00    +0.000 A 
ATOM     14  C   UNL     1      17.901  10.566  37.886  0.00  0.00    +0.000 A 
ATOM     15  N   UNL     1      18.823  11.233  38.598  0.00  0.00    +0.000 NA
ATOM     16  C   UNL     1      20.067  11.016  38.139  0.00  0.00    +0.000 A 
ATOM     17  C   UNL     1      19.993  10.164  37.067  0.00  0.00    +0.000 A 
ATOM     18  C   UNL     1      21.151   9.677  36.281  0.00  0.00    +0.000 C 
ATOM     19  C   UNL     1      22.461   9.954  36.955  0.00  0.00    +0.000 C 
ATOM     20  C   UNL     1      22.367  10.387  38.372  0.00  0.00    +0.000 C 
ATOM     21  C   UNL     1      21.394  11.524  38.589  0.00  0.00    +0.000 C 
ENDBRANCH   1  14
TORSDOF 1
ENDMDL
MODEL 3
REMARK VINA RESULT:      -7.7      2.248      7.157
REMARK  Name = 
REMARK  1 active torsions:
REMARK  status: ('A' for Active; 'I' for Inactive)
REMARK    1  A    between atoms: C_3  and  C_4
REMARK                            x       y       z     vdW  Elec       q    Type
REMARK                         _______ _______ _______ _____ _____    ______ ____
ROOT
ATOM      1  C   UNL     1      16.296  10.675  36.863  0.00  0.00    +0.000 C 
ATOM      2  C   UNL     1      17.428  11.092  37.400  0.00  0.00    +0.000 C 
ATOM      3  C   UNL     1      18.089  12.385  37.308  0.00  0.00    +0.000 C 
ATOM      4  O   UNL     1      17.663  13.354  36.669  0.00  0.00    +0.000 OA
ATOM      5  N   UNL     1      19.295  12.288  38.096  0.00  0.00    +0.000 NA
ATOM      6  C   UNL     1      19.399  10.996  38.660  0.00  0.00    +0.000 A 
ATOM      7  N   UNL     1      20.360  10.455  39.467  0.00  0.00    +0.000 NA
ATOM      8  C   UNL     1      20.281   9.190  39.909  0.00  0.00    +0.000 A 
ATOM      9  C   UNL     1      19.198   8.427  39.532  0.00  0.00    +0.000 A 
ATOM     10  C   UNL     1      18.213   8.970  38.709  0.00  0.00    +0.000 A 
ATOM     11  C   UNL     1      18.307  10.271  38.263  0.00  0.00    +0.000 A 
ENDROOT
BRANCH   1  14
ATOM     12  C   UNL     1      16.549  10.869  33.839  0.00  0.00    +0.000 C 
ATOM     13  C   UNL     1      15.571  11.684  34.633  0.00  0.00    +0.000 A 
ATOM     14  C   UNL     1      15.499  11.567  36.033  0.00  0.00    +0.000 A 
ATOM     15  N   UNL     1      14.531  12.432  36.374  0.00  0.00    +0.000 NA
ATOM     16  C   UNL     1      14.016  13.058  35.302  0.00  0.00    +0.000 A 
ATOM     17  C   UNL     1      14.659  12.602  34.180  0.00  0.00    +0.000 A 
ATOM     18  C   UNL     1      14.382  13.050  32.795  0.00  0.00    +0.000 C 
ATOM     19  C   UNL     1      13.537  14.286  32.749  0.00  0.00    +0.000 C 
ATOM     20  C   UNL     1      13.374  14.993  34.044  0.00  0.00    +0.000 C 
ATOM     21  C   UNL     1      12.942  14.084  35.173  0.00  0.00    +0.000 C 
ENDBRANCH   1  14
TORSDOF 1
ENDMDL
MODEL 4
REMARK VINA RESULT:      -7.5      3.227      7.093
REMARK  Name = 
REMARK  1 active torsions:
REMARK  status: ('A' for Active; 'I' for Inactive)
REMARK    1  A    between atoms: C_3  and  C_4
REMARK                            x       y       z     vdW  Elec       q    Type
REMARK                         _______ _______ _______ _____ _____    ______ ____
ROOT
ATOM      1  C   UNL     1      19.569   9.939  36.814  0.00  0.00    +0.000 C 
ATOM      2  C   UNL     1      20.592  10.639  37.268  0.00  0.00    +0.000 C 
ATOM      3  C   UNL     1      20.617  11.891  38.010  0.00  0.00    +0.000 C 
ATOM      4  O   UNL     1      19.615  12.533  38.346  0.00  0.00    +0.000 OA
ATOM      5  N   UNL     1      22.006  12.198  38.253  0.00  0.00    +0.000 NA
ATOM      6  C   UNL     1      22.828  11.193  37.693  0.00  0.00    +0.000 A 
ATOM      7  N   UNL     1      24.188  11.066  37.678  0.00  0.00    +0.000 NA
ATOM      8  C   UNL     1      24.793  10.023  37.088  0.00  0.00    +0.000 A 
ATOM      9  C   UNL     1      24.011   9.063  36.485  0.00  0.00    +0.000 A 
ATOM     10  C   UNL     1      22.622   9.184  36.496  0.00  0.00    +0.000 A 
ATOM     11  C   UNL     1      22.014  10.260  37.106  0.00  0.00    +0.000 A 
ENDROOT
BRANCH   1  14
ATOM     12  C   UNL     1      17.889   9.183  39.233  0.00  0.00    +0.000 C 
ATOM     13  C   UNL     1      17.394  10.083  38.140  0.00  0.00    +0.000 A 
ATOM     14  C   UNL     1      18.205  10.395  37.035  0.00  0.00    +0.000 A 
ATOM     15  N   UNL     1      17.433  11.205  36.293  0.00  0.00    +0.000 NA
ATOM     16  C   UNL     1      16.230  11.407  36.856  0.00  0.00    +0.000 A 
ATOM     17  C   UNL     1      16.176  10.705  38.033  0.00  0.00    +0.000 A 
ATOM     18  C   UNL     1      15.014  10.664  38.952  0.00  0.00    +0.000 C 
ATOM     19  C   UNL     1      13.769  11.218  38.328  0.00  0.00    +0.000 C 
ATOM     20  C   UNL     1      13.834  11.433  36.861  0.00  0.00    +0.000 C 
ATOM     21  C   UNL     1      15.053  12.213  36.422  0.00  0.00    +0.000 C 
ENDBRANCH   1  14
TORSDOF 1
ENDMDL
MODEL 5
REMARK VINA RESULT:      -7.3      1.513      2.561
REMARK  Name = 
REMARK  1 active torsions:
REMARK  status: ('A' for Active; 'I' for Inactive)
REMARK    1  A    between atoms: C_3  and  C_4
REMARK                            x       y       z     vdW  Elec       q    Type
REMARK                         _______ _______ _______ _____ _____    ______ ____
ROOT
ATOM      1  C   UNL     1      16.763  11.367  36.811  0.00  0.00    +0.000 C 
ATOM      2  C   UNL     1      16.903  11.025  35.544  0.00  0.00    +0.000 C 
ATOM      3  C   UNL     1      17.837  10.099  34.920  0.00  0.00    +0.000 C 
ATOM      4  O   UNL     1      18.700   9.451  35.522  0.00  0.00    +0.000 OA
ATOM      5  N   UNL     1      17.542  10.107  33.507  0.00  0.00    +0.000 NA
ATOM      6  C   UNL     1      16.473  10.994  33.242  0.00  0.00    +0.000 A 
ATOM      7  N   UNL     1      15.861  11.320  32.065  0.00  0.00    +0.000 NA
ATOM      8  C   UNL     1      14.847  12.197  32.015  0.00  0.00    +0.000 A 
ATOM      9  C   UNL     1      14.421  12.778  33.189  0.00  0.00    +0.000 A 
ATOM     10  C   UNL     1      15.039  12.452  34.395  0.00  0.00    +0.000 A 
ATOM     11  C   UNL     1      16.079  11.549  34.431  0.00  0.00    +0.000 A 
ENDROOT
BRANCH   1  14
ATOM     12  C   UNL     1      19.280  12.696  37.880  0.00  0.00    +0.000 C 
ATOM     13  C   UNL     1      18.787  11.366  38.366  0.00  0.00    +0.000 A 
ATOM     14  C   UNL     1      17.622  10.785  37.833  0.00  0.00    +0.000 A 
ATOM     15  N   UNL     1      17.508   9.628  38.503  0.00  0.00    +0.000 NA
ATOM     16  C   UNL     1      18.503   9.462  39.392  0.00  0.00    +0.000 A 
ATOM     17  C   UNL     1      19.332  10.552  39.327  0.00  0.00    +0.000 A 
ATOM     18  C   UNL     1      20.550  10.750  40.148  0.00  0.00    +0.000 C 
ATOM     19  C   UNL     1      20.977   9.498  40.853  0.00  0.00    +0.000 C 
ATOM     20  C   UNL     1      20.311   8.253  40.396  0.00  0.00    +0.000 C 
ATOM     21  C   UNL     1      18.803   8.361  40.351  0.00  0.00    +0.000 C 
ENDBRANCH   1  14
TORSDOF 1
ENDMDL
MODEL 6
REMARK VINA RESULT:      -7.2     19.422     21.358
REMARK  Name = 
REMARK  1 active torsions:
REMARK  status: ('A' for Active; 'I' for Inactive)
REMARK    1  A    between atoms: C_3  and  C_4
REMARK                            x       y       z     vdW  Elec       q    Type
REMARK                         _______ _______ _______ _____ _____    ______ ____
ROOT
ATOM      1  C   UNL     1      30.441  21.960  27.328  0.00  0.00    +0.000 C 
ATOM      2  C   UNL     1      30.960  22.850  28.153  0.00  0.00    +0.000 C 
ATOM      3  C   UNL     1      30.661  24.266  28.314  0.00  0.00    +0.000 C 
ATOM      4  O   UNL     1      29.822  24.891  27.656  0.00  0.00    +0.000 OA
ATOM      5  N   UNL     1      31.523  24.752  29.365  0.00  0.00    +0.000 NA
ATOM      6  C   UNL     1      32.333  23.699  29.850  0.00  0.00    +0.000 A 
ATOM      7  N   UNL     1      33.285  23.691  30.830  0.00  0.00    +0.000 NA
ATOM      8  C   UNL     1      33.957  22.575  31.153  0.00  0.00    +0.000 A 
ATOM      9  C   UNL     1      33.670  21.413  30.471  0.00  0.00    +0.000 A 
ATOM     10  C   UNL     1      32.700  21.412  29.469  0.00  0.00    +0.000 A 
ATOM     11  C   UNL     1      32.018  22.565  29.149  0.00  0.00    +0.000 A 
ENDROOT
BRANCH   1  14
ATOM     12  C   UNL     1      30.963  22.861  24.471  0.00  0.00    +0.000 C 
ATOM     13  C   UNL     1      29.586  22.754  25.058  0.00  0.00    +0.000 A 
ATOM     14  C   UNL     1      29.397  22.342  26.390  0.00  0.00    +0.000 A 
ATOM     15  N   UNL     1      28.063  22.370  26.543  0.00  0.00    +0.000 NA
ATOM     16  C   UNL     1      27.436  22.762  25.421  0.00  0.00    +0.000 A 
ATOM     17  C   UNL     1      28.380  23.013  24.459  0.00  0.00    +0.000 A 
ATOM     18  C   UNL     1      28.093  23.471  23.079  0.00  0.00    +0.000 C 
ATOM     19  C   UNL     1      26.679  23.937  22.910  0.00  0.00    +0.000 C 
ATOM     20  C   UNL     1      25.920  24.133  24.171  0.00  0.00    +0.000 C 
ATOM     21  C   UNL     1      25.991  22.944  25.103  0.00  0.00    +0.000 C 
ENDBRANCH   1  14
TORSDOF 1
ENDMDL
MODEL 7
REMARK VINA RESULT:      -6.8     19.985     22.022
REMARK  Name = 
REMARK  1 active torsions:
REMARK  status: ('A' for Active; 'I' for Inactive)
REMARK    1  A    between atoms: C_3  and  C_4
REMARK                            x       y       z     vdW  Elec       q    Type
REMARK                         _______ _______ _______ _____ _____    ______ ____
ROOT
ATOM      1  C   UNL     1      30.962  22.824  26.058  0.00  0.00    +0.000 C 
ATOM      2  C   UNL     1      30.448  22.970  27.265  0.00  0.00    +0.000 C 
ATOM      3  C   UNL     1      29.228  23.642  27.689  0.00  0.00    +0.000 C 
ATOM      4  O   UNL     1      28.439  24.220  26.933  0.00  0.00    +0.000 OA
ATOM      5  N   UNL     1      29.152  23.490  29.123  0.00  0.00    +0.000 NA
ATOM      6  C   UNL     1      30.267  22.758  29.590  0.00  0.00    +0.000 A 
ATOM      7  N   UNL     1      30.611  22.376  30.856  0.00  0.00    +0.000 NA
ATOM      8  C   UNL     1      31.727  21.673  31.104  0.00  0.00    +0.000 A 
ATOM      9  C   UNL     1      32.539  21.334  30.044  0.00  0.00    +0.000 A 
ATOM     10  C   UNL     1      32.197  21.718  28.749  0.00  0.00    +0.000 A 
ATOM     11  C   UNL     1      31.048  22.439  28.510  0.00  0.00    +0.000 A 
ENDROOT
BRANCH   1  14
ATOM     12  C   UNL     1      31.506  25.596  24.934  0.00  0.00    +0.000 C 
ATOM     13  C   UNL     1      30.512  24.648  24.331  0.00  0.00    +0.000 A 
ATOM     14  C   UNL     1      30.287  23.379  24.894  0.00  0.00    +0.000 A 
ATOM     15  N   UNL     1      29.354  22.838  24.095  0.00  0.00    +0.000 NA
ATOM     16  C   UNL     1      28.998  23.671  23.103  0.00  0.00    +0.000 A 
ATOM     17  C   UNL     1      29.719  24.831  23.228  0.00  0.00    +0.000 A 
ATOM     18  C   UNL     1      29.614  26.003  22.327  0.00  0.00    +0.000 C 
ATOM     19  C   UNL     1      28.415  25.935  21.431  0.00  0.00    +0.000 C 
ATOM     20  C   UNL     1      27.415  24.896  21.786  0.00  0.00    +0.000 C 
ATOM     21  C   UNL     1      28.021  23.525  21.987  0.00  0.00    +0.000 C 
ENDBRANCH   1  14
TORSDOF 1
ENDMDL
MODEL 8
REMARK VINA RESULT:      -6.8     21.870     23.577
REMARK  Name = 
REMARK  1 active torsions:
REMARK  status: ('A' for Active; 'I' for Inactive)
REMARK    1  A    between atoms: C_3  and  C_4
REMARK                            x       y       z     vdW  Elec       q    Type
REMARK                         _______ _______ _______ _____ _____    ______ ____
ROOT
ATOM      1  C   UNL     1      29.486  25.005  21.264  0.00  0.00    +0.000 C 
ATOM      2  C   UNL     1      29.437  26.324  21.229  0.00  0.00    +0.000 C 
ATOM      3  C   UNL     1      29.212  27.283  22.300  0.00  0.00    +0.000 C 
ATOM      4  O   UNL     1      29.017  26.987  23.485  0.00  0.00    +0.000 OA
ATOM      5  N   UNL     1      29.266  28.593  21.698  0.00  0.00    +0.000 NA
ATOM      6  C   UNL     1      29.511  28.477  20.310  0.00  0.00    +0.000 A 
ATOM      7  N   UNL     1      29.641  29.438  19.348  0.00  0.00    +0.000 NA
ATOM      8  C   UNL     1      29.877  29.126  18.065  0.00  0.00    +0.000 A 
ATOM      9  C   UNL     1      29.989  27.797  17.721  0.00  0.00    +0.000 A 
ATOM     10  C   UNL     1      29.858  26.809  18.695  0.00  0.00    +0.000 A 
ATOM     11  C   UNL     1      29.616  27.144  20.009  0.00  0.00    +0.000 A 
ENDROOT
BRANCH   1  14
ATOM     12  C   UNL     1      26.776  24.253  22.419  0.00  0.00    +0.000 C 
ATOM     13  C   UNL     1      28.075  23.912  23.088  0.00  0.00    +0.000 A 
ATOM     14  C   UNL     1      29.304  24.292  22.519  0.00  0.00    +0.000 A 
ATOM     15  N   UNL     1      30.214  23.820  23.387  0.00  0.00    +0.000 NA
ATOM     16  C   UNL     1      29.639  23.191  24.426  0.00  0.00    +0.000 A 
ATOM     17  C   UNL     1      28.278  23.235  24.263  0.00  0.00    +0.000 A 
ATOM     18  C   UNL     1      27.286  22.653  25.198  0.00  0.00    +0.000 C 
ATOM     19  C   UNL     1      27.893  22.274  26.515  0.00  0.00    +0.000 C 
ATOM     20  C   UNL     1      29.262  22.792  26.758  0.00  0.00    +0.000 C 
ATOM     21  C   UNL     1      30.219  22.514  25.620  0.00  0.00    +0.000 C 
ENDBRANCH   1  14
TORSDOF 1
ENDMDL
MODEL 9
REMARK VINA RESULT:      -6.7     19.702     20.528
REMARK  Name = 
REMARK  1 active torsions:
REMARK  status: ('A' for Active; 'I' for Inactive)
REMARK    1  A    between atoms: C_3  and  C_4
REMARK                            x       y       z     vdW  Elec       q    Type
REMARK                         _______ _______ _______ _____ _____    ______ ____
ROOT
ATOM      1  C   UNL     1      28.861  22.949  26.662  0.00  0.00    +0.000 C 
ATOM      2  C   UNL     1      29.030  23.145  25.367  0.00  0.00    +0.000 C 
ATOM      3  C   UNL     1      30.252  23.312  24.596  0.00  0.00    +0.000 C 
ATOM      4  O   UNL     1      31.394  23.298  25.068  0.00  0.00    +0.000 OA
ATOM      5  N   UNL     1      29.850  23.489  23.221  0.00  0.00    +0.000 NA
ATOM      6  C   UNL     1      28.441  23.439  23.120  0.00  0.00    +0.000 A 
ATOM      7  N   UNL     1      27.624  23.556  22.031  0.00  0.00    +0.000 NA
ATOM      8  C   UNL     1      26.289  23.478  22.137  0.00  0.00    +0.000 A 
ATOM      9  C   UNL     1      25.739  23.275  23.384  0.00  0.00    +0.000 A 
ATOM     10  C   UNL     1      26.564  23.155  24.501  0.00  0.00    +0.000 A 
ATOM     11  C   UNL     1      27.933  23.236  24.376  0.00  0.00    +0.000 A 
ENDROOT
BRANCH   1  14
ATOM     12  C   UNL     1      29.878  25.265  28.349  0.00  0.00    +0.000 C 
ATOM     13  C   UNL     1      30.509  23.904  28.360  0.00  0.00    +0.000 A 
ATOM     14  C   UNL     1      30.009  22.867  27.553  0.00  0.00    +0.000 A 
ATOM     15  N   UNL     1      30.815  21.830  27.832  0.00  0.00    +0.000 NA
ATOM     16  C   UNL     1      31.756  22.154  28.735  0.00  0.00    +0.000 A 
ATOM     17  C   UNL     1      31.586  23.468  29.089  0.00  0.00    +0.000 A 
ATOM     18  C   UNL     1      32.426  24.207  30.062  0.00  0.00    +0.000 C 
ATOM     19  C   UNL     1      33.687  23.474  30.405  0.00  0.00    +0.000 C 
ATOM     20  C   UNL     1      34.010  22.321  29.529  0.00  0.00    +0.000 C 
ATOM     21  C   UNL     1      32.856  21.360  29.352  0.00  0.00    +0.000 C 
ENDBRANCH   1  14
TORSDOF 1
ENDMDL
MODEL 10
REMARK VINA RESULT:      -6.7     21.998     23.514
REMARK  Name = 
REMARK  1 active torsions:
REMARK  status: ('A' for Active; 'I' for Inactive)
REMARK    1  A    between atoms: C_3  and  C_4
REMARK                            x       y       z     vdW  Elec       q    Type
REMARK                         _______ _______ _______ _____ _____    ______ ____
ROOT
ATOM      1  C   UNL     1      32.012  23.608  24.377  0.00  0.00    +0.000 C 
ATOM      2  C   UNL     1      32.677  24.690  24.735  0.00  0.00    +0.000 C 
ATOM      3  C   UNL     1      32.190  25.981  25.199  0.00  0.00    +0.000 C 
ATOM      4  O   UNL     1      30.998  26.280  25.333  0.00  0.00    +0.000 OA
ATOM      5  N   UNL     1      33.355  26.794  25.455  0.00  0.00    +0.000 NA
ATOM      6  C   UNL     1      34.528  26.059  25.168  0.00  0.00    +0.000 A 
ATOM      7  N   UNL     1      35.844  26.416  25.261  0.00  0.00    +0.000 NA
ATOM      8  C   UNL     1      36.831  25.565  24.939  0.00  0.00    +0.000 A 
ATOM      9  C   UNL     1      36.495  24.302  24.504  0.00  0.00    +0.000 A 
ATOM     10  C   UNL     1      35.156  23.929  24.406  0.00  0.00    +0.000 A 
ATOM     11  C   UNL     1      34.153  24.812  24.741  0.00  0.00    +0.000 A 
ENDROOT
BRANCH   1  14
ATOM     12  C   UNL     1      30.383  22.295  26.583  0.00  0.00    +0.000 C 
ATOM     13  C   UNL     1      29.760  23.006  25.418  0.00  0.00    +0.000 A 
ATOM     14  C   UNL     1      30.557  23.589  24.415  0.00  0.00    +0.000 A 
ATOM     15  N   UNL     1      29.661  24.117  23.566  0.00  0.00    +0.000 NA
ATOM     16  C   UNL     1      28.398  23.901  23.969  0.00  0.00    +0.000 A 
ATOM     17  C   UNL     1      28.430  23.197  25.145  0.00  0.00    +0.000 A 
ATOM     18  C   UNL     1      27.240  22.759  25.912  0.00  0.00    +0.000 C 
ATOM     19  C   UNL     1      25.970  22.888  25.126  0.00  0.00    +0.000 C 
ATOM     20  C   UNL     1      26.145  23.142  23.674  0.00  0.00    +0.000 C 
ATOM     21  C   UNL     1      27.087  24.287  23.374  0.00  0.00    +0.000 C 
ENDBRANCH   1  14
TORSDOF 1
ENDMDL
