MODEL 1
REMARK VINA RESULT:      -8.6      0.000      0.000
REMARK  Name = 
REMARK  8 active torsions:
REMARK  status: ('A' for Active; 'I' for Inactive)
REMARK    1  A    between atoms: C_2  and  C_3
REMARK    2  A    between atoms: C_2  and  C_17
REMARK    3  A    between atoms: C_3  and  O_4
REMARK    4  A    between atoms: O_4  and  C_5
REMARK    5  A    between atoms: C_8  and  C_9
REMARK    6  A    between atoms: C_17  and  N_18
REMARK    7  A    between atoms: C_21  and  C_22
REMARK    8  A    between atoms: C_22  and  C_23
REMARK                            x       y       z     vdW  Elec       q    Type
REMARK                         _______ _______ _______ _____ _____    ______ ____
ROOT
ATOM      1  O   UNL     1      13.576  -1.271  27.259  0.00  0.00    +0.000 OA
ATOM      2  C   UNL     1      14.243  -0.233  28.135  0.00  0.00    +0.000 C 
ENDROOT
BRANCH   2   3
ATOM      3  C   UNL     1      12.913   0.705  28.254  0.00  0.00    +0.000 C 
BRANCH   3   4
ATOM      4  O   UNL     1      12.706   1.232  26.964  0.00  0.00    +0.000 OA
BRANCH   4   5
ATOM      5  C   UNL     1      11.402   1.365  26.529  0.00  0.00    +0.000 A 
ATOM      6  C   UNL     1      10.787   2.582  26.687  0.00  0.00    +0.000 A 
ATOM      7  C   UNL     1       9.470   2.742  26.256  0.00  0.00    +0.000 A 
ATOM      8  C   UNL     1       8.786   1.711  25.681  0.00  0.00    +0.000 A 
ATOM      9  C   UNL     1       9.384   0.497  25.517  0.00  0.00    +0.000 A 
ATOM     10  C   UNL     1      10.704   0.340  25.950  0.00  0.00    +0.000 A 
BRANCH   8  11
ATOM     11  C   UNL     1       7.426   1.909  25.246  0.00  0.00    +0.000 A 
ATOM     12  C   UNL     1       7.007   1.292  24.075  0.00  0.00    +0.000 A 
ATOM     13  C   UNL     1       5.710   1.470  23.642  0.00  0.00    +0.000 A 
ATOM     14  C   UNL     1       4.871   2.263  24.401  0.00  0.00    +0.000 A 
ATOM     15  C   UNL     1       5.282   2.875  25.561  0.00  0.00    +0.000 A 
ATOM     16  C   UNL     1       6.594   2.703  26.009  0.00  0.00    +0.000 A 
ENDBRANCH   8  11
ENDBRANCH   4   5
ENDBRANCH   3   4
ENDBRANCH   2   3
BRANCH   2  17
ATOM     17  C   UNL     1      14.903   0.571  26.882  0.00  0.00    +0.000 C 
BRANCH  17  18
ATOM     18  N   UNL     1      16.232   0.232  26.709  0.00  0.00    +0.000 NA
ATOM     19  C   UNL     1      16.618  -0.956  26.073  0.00  0.00    +0.000 C 
ATOM     20  C   UNL     1      18.151  -1.021  26.036  0.00  0.00    +0.000 C 
ATOM     21  C   UNL     1      18.604   0.147  25.238  0.00  0.00    +0.000 C 
ATOM     22  C   UNL     1      18.025   1.456  25.636  0.00  0.00    +0.000 C 
ATOM     23  C   UNL     1      17.227   1.225  26.904  0.00  0.00    +0.000 C 
BRANCH  21  24
ATOM     24  C   UNL     1      20.038   0.160  24.871  0.00  0.00    +0.000 C 
BRANCH  24  25
ATOM     25  C   UNL     1      20.172  -0.222  23.443  0.00  0.00    +0.000 A 
ATOM     26  C   UNL     1      20.258  -1.570  23.165  0.00  0.00    +0.000 A 
ATOM     27  C   UNL     1      20.384  -1.999  21.869  0.00  0.00    +0.000 A 
ATOM     28  C   UNL     1      20.420  -1.061  20.870  0.00  0.00    +0.000 A 
ATOM     29  C   UNL     1      20.337   0.285  21.119  0.00  0.00    +0.000 A 
ATOM     30  C   UNL     1      20.211   0.698  22.419  0.00  0.00    +0.000 A 
ENDBRANCH  24  25
ENDBRANCH  21  24
ENDBRANCH  17  18
ENDBRANCH   2  17
TORSDOF 8
ENDMDL
MODEL 2
REMARK VINA RESULT:      -8.2     24.281     28.206
REMARK  Name = 
REMARK  8 active torsions:
REMARK  status: ('A' for Active; 'I' for Inactive)
REMARK    1  A    between atoms: C_2  and  C_3
REMARK    2  A    between atoms: C_2  and  C_17
REMARK    3  A    between atoms: C_3  and  O_4
REMARK    4  A    between atoms: O_4  and  C_5
REMARK    5  A    between atoms: C_8  and  C_9
REMARK    6  A    between atoms: C_17  and  N_18
REMARK    7  A    between atoms: C_21  and  C_22
REMARK    8  A    between atoms: C_22  and  C_23
REMARK                            x       y       z     vdW  Elec       q    Type
REMARK                         _______ _______ _______ _____ _____    ______ ____
ROOT
ATOM      1  O   UNL     1      43.217  -1.610  10.409  0.00  0.00    +0.000 OA
ATOM      2  C   UNL     1      42.406  -1.303  11.648  0.00  0.00    +0.000 C 
ENDROOT
BRANCH   2   3
ATOM      3  C   UNL     1      41.443  -2.613  11.495  0.00  0.00    +0.000 C 
BRANCH   3   4
ATOM      4  O   UNL     1      41.408  -3.206  12.773  0.00  0.00    +0.000 OA
BRANCH   4   5
ATOM      5  C   UNL     1      40.376  -2.847  13.617  0.00  0.00    +0.000 A 
ATOM      6  C   UNL     1      39.155  -2.553  13.060  0.00  0.00    +0.000 A 
ATOM      7  C   UNL     1      38.097  -2.187  13.892  0.00  0.00    +0.000 A 
ATOM      8  C   UNL     1      38.255  -2.117  15.245  0.00  0.00    +0.000 A 
ATOM      9  C   UNL     1      39.459  -2.407  15.812  0.00  0.00    +0.000 A 
ATOM     10  C   UNL     1      40.519  -2.773  14.975  0.00  0.00    +0.000 A 
BRANCH   8  11
ATOM     11  C   UNL     1      37.140  -1.736  16.076  0.00  0.00    +0.000 A 
ATOM     12  C   UNL     1      35.862  -2.111  15.685  0.00  0.00    +0.000 A 
ATOM     13  C   UNL     1      34.782  -1.756  16.466  0.00  0.00    +0.000 A 
ATOM     14  C   UNL     1      35.021  -1.034  17.620  0.00  0.00    +0.000 A 
ATOM     15  C   UNL     1      36.285  -0.662  18.010  0.00  0.00    +0.000 A 
ATOM     16  C   UNL     1      37.386  -1.015  17.226  0.00  0.00    +0.000 A 
ENDBRANCH   8  11
ENDBRANCH   4   5
ENDBRANCH   3   4
ENDBRANCH   2   3
BRANCH   2  17
ATOM     17  C   UNL     1      41.407  -0.271  10.881  0.00  0.00    +0.000 C 
BRANCH  17  18
ATOM     18  N   UNL     1      41.052   0.787  11.697  0.00  0.00    +0.000 NA
ATOM     19  C   UNL     1      40.031   1.682  11.349  0.00  0.00    +0.000 C 
ATOM     20  C   UNL     1      39.883   2.723  12.468  0.00  0.00    +0.000 C 
ATOM     21  C   UNL     1      39.501   1.974  13.692  0.00  0.00    +0.000 C 
ATOM     22  C   UNL     1      40.351   0.799  14.015  0.00  0.00    +0.000 C 
ATOM     23  C   UNL     1      41.512   0.806  13.040  0.00  0.00    +0.000 C 
BRANCH  21  24
ATOM     24  C   UNL     1      39.076   2.800  14.846  0.00  0.00    +0.000 C 
BRANCH  24  25
ATOM     25  C   UNL     1      37.655   2.501  15.152  0.00  0.00    +0.000 A 
ATOM     26  C   UNL     1      37.134   3.061  16.300  0.00  0.00    +0.000 A 
ATOM     27  C   UNL     1      35.829   2.830  16.648  0.00  0.00    +0.000 A 
ATOM     28  C   UNL     1      35.065   2.035  15.833  0.00  0.00    +0.000 A 
ATOM     29  C   UNL     1      35.558   1.465  14.687  0.00  0.00    +0.000 A 
ATOM     30  C   UNL     1      36.864   1.706  14.352  0.00  0.00    +0.000 A 
ENDBRANCH  24  25
ENDBRANCH  21  24
ENDBRANCH  17  18
ENDBRANCH   2  17
TORSDOF 8
ENDMDL
MODEL 3
REMARK VINA RESULT:      -8.2     23.933     27.845
REMARK  Name = 
REMARK  8 active torsions:
REMARK  status: ('A' for Active; 'I' for Inactive)
REMARK    1  A    between atoms: C_2  and  C_3
REMARK    2  A    between atoms: C_2  and  C_17
REMARK    3  A    between atoms: C_3  and  O_4
REMARK    4  A    between atoms: O_4  and  C_5
REMARK    5  A    between atoms: C_8  and  C_9
REMARK    6  A    between atoms: C_17  and  N_18
REMARK    7  A    between atoms: C_21  and  C_22
REMARK    8  A    between atoms: C_22  and  C_23
REMARK                            x       y       z     vdW  Elec       q    Type
REMARK                         _______ _______ _______ _____ _____    ______ ____
ROOT
ATOM      1  O   UNL     1      43.299  -2.351  11.576  0.00  0.00    +0.000 OA
ATOM      2  C   UNL     1      41.980  -1.715  11.953  0.00  0.00    +0.000 C 
ENDROOT
BRANCH   2   3
ATOM      3  C   UNL     1      42.639  -0.267  12.321  0.00  0.00    +0.000 C 
BRANCH   3   4
ATOM      4  O   UNL     1      41.756   0.694  11.790  0.00  0.00    +0.000 OA
BRANCH   4   5
ATOM      5  C   UNL     1      40.642   1.021  12.537  0.00  0.00    +0.000 A 
ATOM      6  C   UNL     1      39.489   1.354  11.870  0.00  0.00    +0.000 A 
ATOM      7  C   UNL     1      38.350   1.688  12.603  0.00  0.00    +0.000 A 
ATOM      8  C   UNL     1      38.363   1.688  13.966  0.00  0.00    +0.000 A 
ATOM      9  C   UNL     1      39.500   1.359  14.642  0.00  0.00    +0.000 A 
ATOM     10  C   UNL     1      40.640   1.025  13.905  0.00  0.00    +0.000 A 
BRANCH   8  11
ATOM     11  C   UNL     1      37.168   2.038  14.694  0.00  0.00    +0.000 A 
ATOM     12  C   UNL     1      37.297   2.736  15.886  0.00  0.00    +0.000 A 
ATOM     13  C   UNL     1      36.166   3.079  16.597  0.00  0.00    +0.000 A 
ATOM     14  C   UNL     1      34.937   2.711  16.085  0.00  0.00    +0.000 A 
ATOM     15  C   UNL     1      34.805   2.020  14.904  0.00  0.00    +0.000 A 
ATOM     16  C   UNL     1      35.944   1.666  14.177  0.00  0.00    +0.000 A 
ENDBRANCH   8  11
ENDBRANCH   4   5
ENDBRANCH   3   4
ENDBRANCH   2   3
BRANCH   2  17
ATOM     17  C   UNL     1      41.999  -2.298  13.474  0.00  0.00    +0.000 C 
BRANCH  17  18
ATOM     18  N   UNL     1      40.735  -2.682  13.883  0.00  0.00    +0.000 NA
ATOM     19  C   UNL     1      40.330  -2.593  15.221  0.00  0.00    +0.000 C 
ATOM     20  C   UNL     1      38.880  -3.085  15.332  0.00  0.00    +0.000 C 
ATOM     21  C   UNL     1      38.060  -2.170  14.497  0.00  0.00    +0.000 C 
ATOM     22  C   UNL     1      38.560  -1.946  13.116  0.00  0.00    +0.000 C 
ATOM     23  C   UNL     1      39.728  -2.889  12.904  0.00  0.00    +0.000 C 
BRANCH  21  24
ATOM     24  C   UNL     1      36.593  -2.311  14.638  0.00  0.00    +0.000 C 
BRANCH  24  25
ATOM     25  C   UNL     1      36.166  -1.642  15.892  0.00  0.00    +0.000 A 
ATOM     26  C   UNL     1      37.140  -0.972  16.603  0.00  0.00    +0.000 A 
ATOM     27  C   UNL     1      36.821  -0.331  17.772  0.00  0.00    +0.000 A 
ATOM     28  C   UNL     1      35.522  -0.373  18.207  0.00  0.00    +0.000 A 
ATOM     29  C   UNL     1      34.534  -1.032  17.521  0.00  0.00    +0.000 A 
ATOM     30  C   UNL     1      34.869  -1.668  16.354  0.00  0.00    +0.000 A 
ENDBRANCH  24  25
ENDBRANCH  21  24
ENDBRANCH  17  18
ENDBRANCH   2  17
TORSDOF 8
ENDMDL
MODEL 4
REMARK VINA RESULT:      -8.1      1.618     11.116
REMARK  Name = 
REMARK  8 active torsions:
REMARK  status: ('A' for Active; 'I' for Inactive)
REMARK    1  A    between atoms: C_2  and  C_3
REMARK    2  A    between atoms: C_2  and  C_17
REMARK    3  A    between atoms: C_3  and  O_4
REMARK    4  A    between atoms: O_4  and  C_5
REMARK    5  A    between atoms: C_8  and  C_9
REMARK    6  A    between atoms: C_17  and  N_18
REMARK    7  A    between atoms: C_21  and  C_22
REMARK    8  A    between atoms: C_22  and  C_23
REMARK                            x       y       z     vdW  Elec       q    Type
REMARK                         _______ _______ _______ _____ _____    ______ ____
ROOT
ATOM      1  O   UNL     1      13.245  -1.292  26.752  0.00  0.00    +0.000 OA
ATOM      2  C   UNL     1      13.622   0.165  26.908  0.00  0.00    +0.000 C 
ENDROOT
BRANCH   2   3
ATOM      3  C   UNL     1      14.922  -0.142  27.847  0.00  0.00    +0.000 C 
BRANCH   3   4
ATOM      4  O   UNL     1      15.867   0.850  27.517  0.00  0.00    +0.000 OA
BRANCH   4   5
ATOM      5  C   UNL     1      16.791   0.550  26.534  0.00  0.00    +0.000 A 
ATOM      6  C   UNL     1      16.890  -0.754  26.113  0.00  0.00    +0.000 A 
ATOM      7  C   UNL     1      17.815  -1.082  25.123  0.00  0.00    +0.000 A 
ATOM      8  C   UNL     1      18.620  -0.131  24.567  0.00  0.00    +0.000 A 
ATOM      9  C   UNL     1      18.533   1.166  24.974  0.00  0.00    +0.000 A 
ATOM     10  C   UNL     1      17.605   1.492  25.968  0.00  0.00    +0.000 A 
BRANCH   8  11
ATOM     11  C   UNL     1      19.567  -0.504  23.545  0.00  0.00    +0.000 A 
ATOM     12  C   UNL     1      19.705  -1.848  23.227  0.00  0.00    +0.000 A 
ATOM     13  C   UNL     1      20.604  -2.225  22.252  0.00  0.00    +0.000 A 
ATOM     14  C   UNL     1      21.338  -1.237  21.624  0.00  0.00    +0.000 A 
ATOM     15  C   UNL     1      21.203   0.095  21.936  0.00  0.00    +0.000 A 
ATOM     16  C   UNL     1      20.296   0.488  22.922  0.00  0.00    +0.000 A 
ENDBRANCH   8  11
ENDBRANCH   4   5
ENDBRANCH   3   4
ENDBRANCH   2   3
BRANCH   2  17
ATOM     17  C   UNL     1      12.585   0.422  28.138  0.00  0.00    +0.000 C 
BRANCH  17  18
ATOM     18  N   UNL     1      11.922   1.627  27.994  0.00  0.00    +0.000 NA
ATOM     19  C   UNL     1      11.560   2.128  26.736  0.00  0.00    +0.000 C 
ATOM     20  C   UNL     1      10.834   3.468  26.929  0.00  0.00    +0.000 C 
ATOM     21  C   UNL     1       9.615   3.176  27.724  0.00  0.00    +0.000 C 
ATOM     22  C   UNL     1       9.832   2.379  28.959  0.00  0.00    +0.000 C 
ATOM     23  C   UNL     1      11.330   2.228  29.136  0.00  0.00    +0.000 C 
BRANCH  21  24
ATOM     24  C   UNL     1       8.637   4.283  27.835  0.00  0.00    +0.000 C 
BRANCH  24  25
ATOM     25  C   UNL     1       7.373   3.873  27.175  0.00  0.00    +0.000 A 
ATOM     26  C   UNL     1       6.259   4.647  27.427  0.00  0.00    +0.000 A 
ATOM     27  C   UNL     1       5.055   4.331  26.854  0.00  0.00    +0.000 A 
ATOM     28  C   UNL     1       4.991   3.236  26.031  0.00  0.00    +0.000 A 
ATOM     29  C   UNL     1       6.082   2.449  25.764  0.00  0.00    +0.000 A 
ATOM     30  C   UNL     1       7.278   2.779  26.344  0.00  0.00    +0.000 A 
ENDBRANCH  24  25
ENDBRANCH  21  24
ENDBRANCH  17  18
ENDBRANCH   2  17
TORSDOF 8
ENDMDL
MODEL 5
REMARK VINA RESULT:      -8.0     23.843     28.038
REMARK  Name = 
REMARK  8 active torsions:
REMARK  status: ('A' for Active; 'I' for Inactive)
REMARK    1  A    between atoms: C_2  and  C_3
REMARK    2  A    between atoms: C_2  and  C_17
REMARK    3  A    between atoms: C_3  and  O_4
REMARK    4  A    between atoms: O_4  and  C_5
REMARK    5  A    between atoms: C_8  and  C_9
REMARK    6  A    between atoms: C_17  and  N_18
REMARK    7  A    between atoms: C_21  and  C_22
REMARK    8  A    between atoms: C_22  and  C_23
REMARK                            x       y       z     vdW  Elec       q    Type
REMARK                         _______ _______ _______ _____ _____    ______ ____
ROOT
ATOM      1  O   UNL     1      37.702   3.708  17.325  0.00  0.00    +0.000 OA
ATOM      2  C   UNL     1      38.171   3.781  15.889  0.00  0.00    +0.000 C 
ENDROOT
BRANCH   2   3
ATOM      3  C   UNL     1      38.282   5.410  15.875  0.00  0.00    +0.000 C 
BRANCH   3   4
ATOM      4  O   UNL     1      38.220   5.803  17.227  0.00  0.00    +0.000 OA
BRANCH   4   5
ATOM      5  C   UNL     1      39.415   6.023  17.884  0.00  0.00    +0.000 A 
ATOM      6  C   UNL     1      39.399   6.091  19.255  0.00  0.00    +0.000 A 
ATOM      7  C   UNL     1      40.592   6.313  19.941  0.00  0.00    +0.000 A 
ATOM      8  C   UNL     1      41.772   6.464  19.273  0.00  0.00    +0.000 A 
ATOM      9  C   UNL     1      41.804   6.399  17.913  0.00  0.00    +0.000 A 
ATOM     10  C   UNL     1      40.606   6.176  17.228  0.00  0.00    +0.000 A 
BRANCH   8  11
ATOM     11  C   UNL     1      42.989   6.692  20.013  0.00  0.00    +0.000 A 
ATOM     12  C   UNL     1      43.981   7.471  19.434  0.00  0.00    +0.000 A 
ATOM     13  C   UNL     1      45.152   7.701  20.125  0.00  0.00    +0.000 A 
ATOM     14  C   UNL     1      45.290   7.141  21.381  0.00  0.00    +0.000 A 
ATOM     15  C   UNL     1      44.309   6.370  21.957  0.00  0.00    +0.000 A 
ATOM     16  C   UNL     1      43.119   6.130  21.266  0.00  0.00    +0.000 A 
ENDBRANCH   8  11
ENDBRANCH   4   5
ENDBRANCH   3   4
ENDBRANCH   2   3
BRANCH   2  17
ATOM     17  C   UNL     1      36.667   3.710  15.270  0.00  0.00    +0.000 C 
BRANCH  17  18
ATOM     18  N   UNL     1      36.184   2.414  15.265  0.00  0.00    +0.000 NA
ATOM     19  C   UNL     1      36.990   1.324  14.910  0.00  0.00    +0.000 C 
ATOM     20  C   UNL     1      36.159   0.038  15.019  0.00  0.00    +0.000 C 
ATOM     21  C   UNL     1      35.750  -0.080  16.442  0.00  0.00    +0.000 C 
ATOM     22  C   UNL     1      35.135   1.136  17.034  0.00  0.00    +0.000 C 
ATOM     23  C   UNL     1      34.951   2.136  15.910  0.00  0.00    +0.000 C 
BRANCH  21  24
ATOM     24  C   UNL     1      35.134  -1.369  16.831  0.00  0.00    +0.000 C 
BRANCH  24  25
ATOM     25  C   UNL     1      36.204  -2.388  16.974  0.00  0.00    +0.000 A 
ATOM     26  C   UNL     1      36.052  -3.556  16.256  0.00  0.00    +0.000 A 
ATOM     27  C   UNL     1      36.999  -4.544  16.339  0.00  0.00    +0.000 A 
ATOM     28  C   UNL     1      38.088  -4.339  17.145  0.00  0.00    +0.000 A 
ATOM     29  C   UNL     1      38.264  -3.188  17.870  0.00  0.00    +0.000 A 
ATOM     30  C   UNL     1      37.309  -2.210  17.777  0.00  0.00    +0.000 A 
ENDBRANCH  24  25
ENDBRANCH  21  24
ENDBRANCH  17  18
ENDBRANCH   2  17
TORSDOF 8
ENDMDL
MODEL 6
REMARK VINA RESULT:      -7.9     24.821     28.173
REMARK  Name = 
REMARK  8 active torsions:
REMARK  status: ('A' for Active; 'I' for Inactive)
REMARK    1  A    between atoms: C_2  and  C_3
REMARK    2  A    between atoms: C_2  and  C_17
REMARK    3  A    between atoms: C_3  and  O_4
REMARK    4  A    between atoms: O_4  and  C_5
REMARK    5  A    between atoms: C_8  and  C_9
REMARK    6  A    between atoms: C_17  and  N_18
REMARK    7  A    between atoms: C_21  and  C_22
REMARK    8  A    between atoms: C_22  and  C_23
REMARK                            x       y       z     vdW  Elec       q    Type
REMARK                         _______ _______ _______ _____ _____    ______ ____
ROOT
ATOM      1  O   UNL     1      42.376   2.088  10.793  0.00  0.00    +0.000 OA
ATOM      2  C   UNL     1      41.509   1.668  11.960  0.00  0.00    +0.000 C 
ENDROOT
BRANCH   2   3
ATOM      3  C   UNL     1      42.468   0.415  12.383  0.00  0.00    +0.000 C 
BRANCH   3   4
ATOM      4  O   UNL     1      42.245   0.220  13.761  0.00  0.00    +0.000 OA
BRANCH   4   5
ATOM      5  C   UNL     1      41.205  -0.611  14.129  0.00  0.00    +0.000 A 
ATOM      6  C   UNL     1      41.159  -1.872  13.588  0.00  0.00    +0.000 A 
ATOM      7  C   UNL     1      40.118  -2.729  13.943  0.00  0.00    +0.000 A 
ATOM      8  C   UNL     1      39.148  -2.336  14.817  0.00  0.00    +0.000 A 
ATOM      9  C   UNL     1      39.180  -1.088  15.363  0.00  0.00    +0.000 A 
ATOM     10  C   UNL     1      40.225  -0.230  15.005  0.00  0.00    +0.000 A 
BRANCH   8  11
ATOM     11  C   UNL     1      38.085  -3.247  15.164  0.00  0.00    +0.000 A 
ATOM     12  C   UNL     1      38.117  -3.861  16.409  0.00  0.00    +0.000 A 
ATOM     13  C   UNL     1      37.111  -4.736  16.759  0.00  0.00    +0.000 A 
ATOM     14  C   UNL     1      36.099  -4.966  15.847  0.00  0.00    +0.000 A 
ATOM     15  C   UNL     1      36.064  -4.359  14.614  0.00  0.00    +0.000 A 
ATOM     16  C   UNL     1      37.078  -3.473  14.248  0.00  0.00    +0.000 A 
ENDBRANCH   8  11
ENDBRANCH   4   5
ENDBRANCH   3   4
ENDBRANCH   2   3
BRANCH   2  17
ATOM     17  C   UNL     1      40.489   0.794  11.039  0.00  0.00    +0.000 C 
BRANCH  17  18
ATOM     18  N   UNL     1      39.179   0.951  11.451  0.00  0.00    +0.000 NA
ATOM     19  C   UNL     1      38.374  -0.143  11.797  0.00  0.00    +0.000 C 
ATOM     20  C   UNL     1      36.990   0.375  12.215  0.00  0.00    +0.000 C 
ATOM     21  C   UNL     1      37.205   1.238  13.404  0.00  0.00    +0.000 C 
ATOM     22  C   UNL     1      38.262   2.272  13.261  0.00  0.00    +0.000 C 
ATOM     23  C   UNL     1      38.722   2.244  11.817  0.00  0.00    +0.000 C 
BRANCH  21  24
ATOM     24  C   UNL     1      35.981   1.662  14.122  0.00  0.00    +0.000 C 
BRANCH  24  25
ATOM     25  C   UNL     1      35.949   0.995  15.448  0.00  0.00    +0.000 A 
ATOM     26  C   UNL     1      35.683  -0.358  15.458  0.00  0.00    +0.000 A 
ATOM     27  C   UNL     1      35.636  -1.042  16.645  0.00  0.00    +0.000 A 
ATOM     28  C   UNL     1      35.858  -0.351  17.807  0.00  0.00    +0.000 A 
ATOM     29  C   UNL     1      36.124   0.995  17.827  0.00  0.00    +0.000 A 
ATOM     30  C   UNL     1      36.168   1.664  16.632  0.00  0.00    +0.000 A 
ENDBRANCH  24  25
ENDBRANCH  21  24
ENDBRANCH  17  18
ENDBRANCH   2  17
TORSDOF 8
ENDMDL
MODEL 7
REMARK VINA RESULT:      -7.9     24.398     27.479
REMARK  Name = 
REMARK  8 active torsions:
REMARK  status: ('A' for Active; 'I' for Inactive)
REMARK    1  A    between atoms: C_2  and  C_3
REMARK    2  A    between atoms: C_2  and  C_17
REMARK    3  A    between atoms: C_3  and  O_4
REMARK    4  A    between atoms: O_4  and  C_5
REMARK    5  A    between atoms: C_8  and  C_9
REMARK    6  A    between atoms: C_17  and  N_18
REMARK    7  A    between atoms: C_21  and  C_22
REMARK    8  A    between atoms: C_22  and  C_23
REMARK                            x       y       z     vdW  Elec       q    Type
REMARK                         _______ _______ _______ _____ _____    ______ ____
ROOT
ATOM      1  O   UNL     1      40.495   3.946  10.685  0.00  0.00    +0.000 OA
ATOM      2  C   UNL     1      40.194   3.388  12.058  0.00  0.00    +0.000 C 
ENDROOT
BRANCH   2   3
ATOM      3  C   UNL     1      40.364   1.830  11.601  0.00  0.00    +0.000 C 
BRANCH   3   4
ATOM      4  O   UNL     1      40.882   1.161  12.729  0.00  0.00    +0.000 OA
BRANCH   4   5
ATOM      5  C   UNL     1      40.119   0.150  13.278  0.00  0.00    +0.000 A 
ATOM      6  C   UNL     1      40.626  -0.532  14.357  0.00  0.00    +0.000 A 
ATOM      7  C   UNL     1      39.875  -1.558  14.929  0.00  0.00    +0.000 A 
ATOM      8  C   UNL     1      38.648  -1.893  14.437  0.00  0.00    +0.000 A 
ATOM      9  C   UNL     1      38.131  -1.225  13.368  0.00  0.00    +0.000 A 
ATOM     10  C   UNL     1      38.887  -0.197  12.795  0.00  0.00    +0.000 A 
BRANCH   8  11
ATOM     11  C   UNL     1      37.896  -2.959  15.052  0.00  0.00    +0.000 A 
ATOM     12  C   UNL     1      36.822  -3.499  14.360  0.00  0.00    +0.000 A 
ATOM     13  C   UNL     1      36.090  -4.519  14.932  0.00  0.00    +0.000 A 
ATOM     14  C   UNL     1      36.463  -4.967  16.184  0.00  0.00    +0.000 A 
ATOM     15  C   UNL     1      37.527  -4.435  16.873  0.00  0.00    +0.000 A 
ATOM     16  C   UNL     1      38.274  -3.401  16.304  0.00  0.00    +0.000 A 
ENDBRANCH   8  11
ENDBRANCH   4   5
ENDBRANCH   3   4
ENDBRANCH   2   3
BRANCH   2  17
ATOM     17  C   UNL     1      38.579   3.446  11.856  0.00  0.00    +0.000 C 
BRANCH  17  18
ATOM     18  N   UNL     1      37.925   3.603  13.064  0.00  0.00    +0.000 NA
ATOM     19  C   UNL     1      36.547   3.384  13.195  0.00  0.00    +0.000 C 
ATOM     20  C   UNL     1      36.144   3.632  14.655  0.00  0.00    +0.000 C 
ATOM     21  C   UNL     1      36.890   2.641  15.472  0.00  0.00    +0.000 C 
ATOM     22  C   UNL     1      38.351   2.569  15.212  0.00  0.00    +0.000 C 
ATOM     23  C   UNL     1      38.691   3.695  14.255  0.00  0.00    +0.000 C 
BRANCH  21  24
ATOM     24  C   UNL     1      36.483   2.539  16.892  0.00  0.00    +0.000 C 
BRANCH  24  25
ATOM     25  C   UNL     1      36.091   1.136  17.178  0.00  0.00    +0.000 A 
ATOM     26  C   UNL     1      35.599   0.400  16.121  0.00  0.00    +0.000 A 
ATOM     27  C   UNL     1      35.216  -0.903  16.309  0.00  0.00    +0.000 A 
ATOM     28  C   UNL     1      35.335  -1.446  17.562  0.00  0.00    +0.000 A 
ATOM     29  C   UNL     1      35.821  -0.736  18.630  0.00  0.00    +0.000 A 
ATOM     30  C   UNL     1      36.200   0.565  18.427  0.00  0.00    +0.000 A 
ENDBRANCH  24  25
ENDBRANCH  21  24
ENDBRANCH  17  18
ENDBRANCH   2  17
TORSDOF 8
ENDMDL
MODEL 8
REMARK VINA RESULT:      -7.8     24.260     28.183
REMARK  Name = 
REMARK  8 active torsions:
REMARK  status: ('A' for Active; 'I' for Inactive)
REMARK    1  A    between atoms: C_2  and  C_3
REMARK    2  A    between atoms: C_2  and  C_17
REMARK    3  A    between atoms: C_3  and  O_4
REMARK    4  A    between atoms: O_4  and  C_5
REMARK    5  A    between atoms: C_8  and  C_9
REMARK    6  A    between atoms: C_17  and  N_18
REMARK    7  A    between atoms: C_21  and  C_22
REMARK    8  A    between atoms: C_22  and  C_23
REMARK                            x       y       z     vdW  Elec       q    Type
REMARK                         _______ _______ _______ _____ _____    ______ ____
ROOT
ATOM      1  O   UNL     1      43.148  -1.045  12.108  0.00  0.00    +0.000 OA
ATOM      2  C   UNL     1      41.866  -0.886  12.895  0.00  0.00    +0.000 C 
ENDROOT
BRANCH   2   3
ATOM      3  C   UNL     1      40.991  -1.843  11.903  0.00  0.00    +0.000 C 
BRANCH   3   4
ATOM      4  O   UNL     1      40.446  -2.845  12.731  0.00  0.00    +0.000 OA
BRANCH   4   5
ATOM      5  C   UNL     1      39.673  -2.440  13.801  0.00  0.00    +0.000 A 
ATOM      6  C   UNL     1      38.428  -1.921  13.543  0.00  0.00    +0.000 A 
ATOM      7  C   UNL     1      37.629  -1.504  14.607  0.00  0.00    +0.000 A 
ATOM      8  C   UNL     1      38.062  -1.604  15.896  0.00  0.00    +0.000 A 
ATOM      9  C   UNL     1      39.295  -2.117  16.169  0.00  0.00    +0.000 A 
ATOM     10  C   UNL     1      40.094  -2.534  15.100  0.00  0.00    +0.000 A 
BRANCH   8  11
ATOM     11  C   UNL     1      37.210  -1.164  16.973  0.00  0.00    +0.000 A 
ATOM     12  C   UNL     1      37.425  -1.682  18.243  0.00  0.00    +0.000 A 
ATOM     13  C   UNL     1      36.621  -1.275  19.286  0.00  0.00    +0.000 A 
ATOM     14  C   UNL     1      35.624  -0.355  19.022  0.00  0.00    +0.000 A 
ATOM     15  C   UNL     1      35.409   0.161  17.766  0.00  0.00    +0.000 A 
ATOM     16  C   UNL     1      36.217  -0.246  16.701  0.00  0.00    +0.000 A 
ENDBRANCH   8  11
ENDBRANCH   4   5
ENDBRANCH   3   4
ENDBRANCH   2   3
BRANCH   2  17
ATOM     17  C   UNL     1      41.460   0.517  12.174  0.00  0.00    +0.000 C 
BRANCH  17  18
ATOM     18  N   UNL     1      40.464   1.173  12.874  0.00  0.00    +0.000 NA
ATOM     19  C   UNL     1      40.370   1.104  14.270  0.00  0.00    +0.000 C 
ATOM     20  C   UNL     1      39.171   1.946  14.727  0.00  0.00    +0.000 C 
ATOM     21  C   UNL     1      39.454   3.344  14.310  0.00  0.00    +0.000 C 
ATOM     22  C   UNL     1      39.860   3.518  12.892  0.00  0.00    +0.000 C 
ATOM     23  C   UNL     1      39.702   2.172  12.213  0.00  0.00    +0.000 C 
BRANCH  21  24
ATOM     24  C   UNL     1      38.540   4.375  14.851  0.00  0.00    +0.000 C 
BRANCH  24  25
ATOM     25  C   UNL     1      39.136   4.944  16.086  0.00  0.00    +0.000 A 
ATOM     26  C   UNL     1      38.518   4.628  17.278  0.00  0.00    +0.000 A 
ATOM     27  C   UNL     1      39.012   5.117  18.460  0.00  0.00    +0.000 A 
ATOM     28  C   UNL     1      40.123   5.918  18.423  0.00  0.00    +0.000 A 
ATOM     29  C   UNL     1      40.756   6.248  17.252  0.00  0.00    +0.000 A 
ATOM     30  C   UNL     1      40.252   5.752  16.080  0.00  0.00    +0.000 A 
ENDBRANCH  24  25
ENDBRANCH  21  24
ENDBRANCH  17  18
ENDBRANCH   2  17
TORSDOF 8
ENDMDL
MODEL 9
REMARK VINA RESULT:      -7.7     24.474     28.079
REMARK  Name = 
REMARK  8 active torsions:
REMARK  status: ('A' for Active; 'I' for Inactive)
REMARK    1  A    between atoms: C_2  and  C_3
REMARK    2  A    between atoms: C_2  and  C_17
REMARK    3  A    between atoms: C_3  and  O_4
REMARK    4  A    between atoms: O_4  and  C_5
REMARK    5  A    between atoms: C_8  and  C_9
REMARK    6  A    between atoms: C_17  and  N_18
REMARK    7  A    between atoms: C_21  and  C_22
REMARK    8  A    between atoms: C_22  and  C_23
REMARK                            x       y       z     vdW  Elec       q    Type
REMARK                         _______ _______ _______ _____ _____    ______ ____
ROOT
ATOM      1  O   UNL     1      42.215   0.209   9.502  0.00  0.00    +0.000 OA
ATOM      2  C   UNL     1      41.493   0.429  10.813  0.00  0.00    +0.000 C 
ENDROOT
BRANCH   2   3
ATOM      3  C   UNL     1      42.082  -0.925  11.509  0.00  0.00    +0.000 C 
BRANCH   3   4
ATOM      4  O   UNL     1      42.175  -0.632  12.884  0.00  0.00    +0.000 OA
BRANCH   4   5
ATOM      5  C   UNL     1      41.049  -0.832  13.658  0.00  0.00    +0.000 A 
ATOM      6  C   UNL     1      40.491   0.255  14.284  0.00  0.00    +0.000 A 
ATOM      7  C   UNL     1      39.353   0.079  15.072  0.00  0.00    +0.000 A 
ATOM      8  C   UNL     1      38.788  -1.152  15.229  0.00  0.00    +0.000 A 
ATOM      9  C   UNL     1      39.330  -2.240  14.614  0.00  0.00    +0.000 A 
ATOM     10  C   UNL     1      40.471  -2.061  13.825  0.00  0.00    +0.000 A 
BRANCH   8  11
ATOM     11  C   UNL     1      37.612  -1.300  16.050  0.00  0.00    +0.000 A 
ATOM     12  C   UNL     1      36.371  -1.350  15.429  0.00  0.00    +0.000 A 
ATOM     13  C   UNL     1      35.234  -1.490  16.197  0.00  0.00    +0.000 A 
ATOM     14  C   UNL     1      35.379  -1.578  17.568  0.00  0.00    +0.000 A 
ATOM     15  C   UNL     1      36.606  -1.530  18.186  0.00  0.00    +0.000 A 
ATOM     16  C   UNL     1      37.764  -1.386  17.419  0.00  0.00    +0.000 A 
ENDBRANCH   8  11
ENDBRANCH   4   5
ENDBRANCH   3   4
ENDBRANCH   2   3
BRANCH   2  17
ATOM     17  C   UNL     1      40.102  -0.240  10.295  0.00  0.00    +0.000 C 
BRANCH  17  18
ATOM     18  N   UNL     1      39.004   0.478  10.730  0.00  0.00    +0.000 NA
ATOM     19  C   UNL     1      38.097  -0.046  11.662  0.00  0.00    +0.000 C 
ATOM     20  C   UNL     1      37.010   1.002  11.936  0.00  0.00    +0.000 C 
ATOM     21  C   UNL     1      37.699   2.184  12.514  0.00  0.00    +0.000 C 
ATOM     22  C   UNL     1      38.882   2.668  11.757  0.00  0.00    +0.000 C 
ATOM     23  C   UNL     1      38.944   1.871  10.468  0.00  0.00    +0.000 C 
BRANCH  21  24
ATOM     24  C   UNL     1      36.818   3.234  13.074  0.00  0.00    +0.000 C 
BRANCH  24  25
ATOM     25  C   UNL     1      36.391   2.826  14.436  0.00  0.00    +0.000 A 
ATOM     26  C   UNL     1      37.344   2.890  15.431  0.00  0.00    +0.000 A 
ATOM     27  C   UNL     1      37.025   2.528  16.714  0.00  0.00    +0.000 A 
ATOM     28  C   UNL     1      35.747   2.107  16.976  0.00  0.00    +0.000 A 
ATOM     29  C   UNL     1      34.781   2.033  16.005  0.00  0.00    +0.000 A 
ATOM     30  C   UNL     1      35.115   2.399  14.728  0.00  0.00    +0.000 A 
ENDBRANCH  24  25
ENDBRANCH  21  24
ENDBRANCH  17  18
ENDBRANCH   2  17
TORSDOF 8
ENDMDL
MODEL 10
REMARK VINA RESULT:      -7.7     25.381     28.064
REMARK  Name = 
REMARK  8 active torsions:
REMARK  status: ('A' for Active; 'I' for Inactive)
REMARK    1  A    between atoms: C_2  and  C_3
REMARK    2  A    between atoms: C_2  and  C_17
REMARK    3  A    between atoms: C_3  and  O_4
REMARK    4  A    between atoms: O_4  and  C_5
REMARK    5  A    between atoms: C_8  and  C_9
REMARK    6  A    between atoms: C_17  and  N_18
REMARK    7  A    between atoms: C_21  and  C_22
REMARK    8  A    between atoms: C_22  and  C_23
REMARK                            x       y       z     vdW  Elec       q    Type
REMARK                         _______ _______ _______ _____ _____    ______ ____
ROOT
ATOM      1  O   UNL     1      37.850   2.989  11.176  0.00  0.00    +0.000 OA
ATOM      2  C   UNL     1      37.652   1.661  11.873  0.00  0.00    +0.000 C 
ENDROOT
BRANCH   2   3
ATOM      3  C   UNL     1      37.173   2.330  13.283  0.00  0.00    +0.000 C 
BRANCH   3   4
ATOM      4  O   UNL     1      37.594   3.673  13.226  0.00  0.00    +0.000 OA
BRANCH   4   5
ATOM      5  C   UNL     1      38.205   4.200  14.347  0.00  0.00    +0.000 A 
ATOM      6  C   UNL     1      39.432   4.798  14.197  0.00  0.00    +0.000 A 
ATOM      7  C   UNL     1      40.069   5.337  15.314  0.00  0.00    +0.000 A 
ATOM      8  C   UNL     1      39.495   5.280  16.549  0.00  0.00    +0.000 A 
ATOM      9  C   UNL     1      38.277   4.690  16.714  0.00  0.00    +0.000 A 
ATOM     10  C   UNL     1      37.641   4.150  15.592  0.00  0.00    +0.000 A 
BRANCH   8  11
ATOM     11  C   UNL     1      40.180   5.848  17.684  0.00  0.00    +0.000 A 
ATOM     12  C   UNL     1      41.477   6.311  17.512  0.00  0.00    +0.000 A 
ATOM     13  C   UNL     1      42.150   6.857  18.584  0.00  0.00    +0.000 A 
ATOM     14  C   UNL     1      41.497   6.922  19.800  0.00  0.00    +0.000 A 
ATOM     15  C   UNL     1      40.213   6.465  19.974  0.00  0.00    +0.000 A 
ATOM     16  C   UNL     1      39.522   5.909  18.895  0.00  0.00    +0.000 A 
ENDBRANCH   8  11
ENDBRANCH   4   5
ENDBRANCH   3   4
ENDBRANCH   2   3
BRANCH   2  17
ATOM     17  C   UNL     1      39.221   1.510  12.284  0.00  0.00    +0.000 C 
BRANCH  17  18
ATOM     18  N   UNL     1      39.443   0.357  13.013  0.00  0.00    +0.000 NA
ATOM     19  C   UNL     1      39.999   0.387  14.299  0.00  0.00    +0.000 C 
ATOM     20  C   UNL     1      40.100  -1.050  14.828  0.00  0.00    +0.000 C 
ATOM     21  C   UNL     1      38.711  -1.573  14.893  0.00  0.00    +0.000 C 
ATOM     22  C   UNL     1      37.903  -1.398  13.659  0.00  0.00    +0.000 C 
ATOM     23  C   UNL     1      38.831  -0.853  12.591  0.00  0.00    +0.000 C 
BRANCH  21  24
ATOM     24  C   UNL     1      38.542  -2.865  15.596  0.00  0.00    +0.000 C 
BRANCH  24  25
ATOM     25  C   UNL     1      38.220  -2.597  17.020  0.00  0.00    +0.000 A 
ATOM     26  C   UNL     1      38.782  -3.441  17.955  0.00  0.00    +0.000 A 
ATOM     27  C   UNL     1      38.529  -3.257  19.290  0.00  0.00    +0.000 A 
ATOM     28  C   UNL     1      37.713  -2.221  19.664  0.00  0.00    +0.000 A 
ATOM     29  C   UNL     1      37.140  -1.368  18.755  0.00  0.00    +0.000 A 
ATOM     30  C   UNL     1      37.403  -1.565  17.425  0.00  0.00    +0.000 A 
ENDBRANCH  24  25
ENDBRANCH  21  24
ENDBRANCH  17  18
ENDBRANCH   2  17
TORSDOF 8
ENDMDL
