MODEL 1
REMARK VINA RESULT:      -7.6      0.000      0.000
REMARK  Name = 
REMARK  1 active torsions:
REMARK  status: ('A' for Active; 'I' for Inactive)
REMARK    1  A    between atoms: C_6  and  N_7
REMARK                            x       y       z     vdW  Elec       q    Type
REMARK                         _______ _______ _______ _____ _____    ______ ____
ROOT
ATOM      1  N   UNL     1      15.001  10.638  38.815  0.00  0.00    +0.000 NA
ATOM      2  C   UNL     1      16.258  10.371  38.234  0.00  0.00    +0.000 A 
ATOM      3  N   UNL     1      16.382  10.642  36.930  0.00  0.00    +0.000 NA
ATOM      4  C   UNL     1      17.494  10.456  36.209  0.00  0.00    +0.000 A 
ATOM      5  N   UNL     1      18.545   9.955  36.883  0.00  0.00    +0.000 NA
ATOM      6  C   UNL     1      18.472   9.661  38.214  0.00  0.00    +0.000 A 
ATOM      7  S   UNL     1      19.590   9.033  39.336  0.00  0.00    +0.000 S 
ATOM      8  C   UNL     1      18.599   9.021  40.727  0.00  0.00    +0.000 A 
ATOM      9  C   UNL     1      17.424   9.507  40.275  0.00  0.00    +0.000 A 
ATOM     10  C   UNL     1      17.343   9.847  38.959  0.00  0.00    +0.000 A 
ATOM     11  C   UNL     1      16.505   9.505  41.486  0.00  0.00    +0.000 C 
ATOM     12  C   UNL     1      17.485   9.728  42.611  0.00  0.00    +0.000 C 
ATOM     13  C   UNL     1      18.548   8.692  42.205  0.00  0.00    +0.000 C 
ENDROOT
BRANCH   1  19
ATOM     14  O   UNL     1      12.710  13.717  35.789  0.00  0.00    +0.000 OA
ATOM     15  C   UNL     1      12.724  12.641  36.677  0.00  0.00    +0.000 A 
ATOM     16  C   UNL     1      11.524  12.025  36.926  0.00  0.00    +0.000 A 
ATOM     17  C   UNL     1      11.496  10.960  37.796  0.00  0.00    +0.000 A 
ATOM     18  C   UNL     1      12.659  10.549  38.383  0.00  0.00    +0.000 A 
ATOM     19  C   UNL     1      13.891  11.153  38.151  0.00  0.00    +0.000 A 
ATOM     20  C   UNL     1      13.898  12.217  37.278  0.00  0.00    +0.000 A 
ENDBRANCH   1  19
TORSDOF 1
ENDMDL
MODEL 2
REMARK VINA RESULT:      -7.5      3.169      6.151
REMARK  Name = 
REMARK  1 active torsions:
REMARK  status: ('A' for Active; 'I' for Inactive)
REMARK    1  A    between atoms: C_6  and  N_7
REMARK                            x       y       z     vdW  Elec       q    Type
REMARK                         _______ _______ _______ _____ _____    ______ ____
ROOT
ATOM      1  N   UNL     1      15.590   9.646  40.189  0.00  0.00    +0.000 NA
ATOM      2  C   UNL     1      16.301  10.200  39.105  0.00  0.00    +0.000 A 
ATOM      3  N   UNL     1      17.623   9.996  39.091  0.00  0.00    +0.000 NA
ATOM      4  C   UNL     1      18.459  10.443  38.147  0.00  0.00    +0.000 A 
ATOM      5  N   UNL     1      17.889  11.148  37.153  0.00  0.00    +0.000 NA
ATOM      6  C   UNL     1      16.545  11.385  37.118  0.00  0.00    +0.000 A 
ATOM      7  S   UNL     1      15.532  12.217  36.031  0.00  0.00    +0.000 S 
ATOM      8  C   UNL     1      14.035  11.974  36.816  0.00  0.00    +0.000 A 
ATOM      9  C   UNL     1      14.369  11.250  37.904  0.00  0.00    +0.000 A 
ATOM     10  C   UNL     1      15.682  10.934  38.076  0.00  0.00    +0.000 A 
ATOM     11  C   UNL     1      13.060  11.018  38.641  0.00  0.00    +0.000 C 
ATOM     12  C   UNL     1      12.072  10.990  37.501  0.00  0.00    +0.000 C 
ATOM     13  C   UNL     1      12.546  12.246  36.749  0.00  0.00    +0.000 C 
ENDROOT
BRANCH   1  19
ATOM     14  O   UNL     1      17.185   5.565  42.355  0.00  0.00    +0.000 OA
ATOM     15  C   UNL     1      16.937   6.939  42.338  0.00  0.00    +0.000 A 
ATOM     16  C   UNL     1      17.272   7.644  43.466  0.00  0.00    +0.000 A 
ATOM     17  C   UNL     1      17.044   9.000  43.490  0.00  0.00    +0.000 A 
ATOM     18  C   UNL     1      16.494   9.602  42.394  0.00  0.00    +0.000 A 
ATOM     19  C   UNL     1      16.144   8.914  41.235  0.00  0.00    +0.000 A 
ATOM     20  C   UNL     1      16.380   7.558  41.232  0.00  0.00    +0.000 A 
ENDBRANCH   1  19
TORSDOF 1
ENDMDL
MODEL 3
REMARK VINA RESULT:      -7.2     31.760     33.941
REMARK  Name = 
REMARK  1 active torsions:
REMARK  status: ('A' for Active; 'I' for Inactive)
REMARK    1  A    between atoms: C_6  and  N_7
REMARK                            x       y       z     vdW  Elec       q    Type
REMARK                         _______ _______ _______ _____ _____    ______ ____
ROOT
ATOM      1  N   UNL     1      31.038  21.774  11.528  0.00  0.00    +0.000 NA
ATOM      2  C   UNL     1      31.625  21.907  10.253  0.00  0.00    +0.000 A 
ATOM      3  N   UNL     1      30.917  22.578   9.337  0.00  0.00    +0.000 NA
ATOM      4  C   UNL     1      31.310  22.806   8.079  0.00  0.00    +0.000 A 
ATOM      5  N   UNL     1      32.514  22.306   7.747  0.00  0.00    +0.000 NA
ATOM      6  C   UNL     1      33.277  21.615   8.643  0.00  0.00    +0.000 A 
ATOM      7  S   UNL     1      34.807  20.871   8.547  0.00  0.00    +0.000 S 
ATOM      8  C   UNL     1      34.918  20.274  10.144  0.00  0.00    +0.000 A 
ATOM      9  C   UNL     1      33.757  20.672  10.705  0.00  0.00    +0.000 A 
ATOM     10  C   UNL     1      32.887  21.376   9.930  0.00  0.00    +0.000 A 
ATOM     11  C   UNL     1      33.810  20.151  12.132  0.00  0.00    +0.000 C 
ATOM     12  C   UNL     1      35.292  20.182  12.411  0.00  0.00    +0.000 C 
ATOM     13  C   UNL     1      35.789  19.508  11.120  0.00  0.00    +0.000 C 
ENDROOT
BRANCH   1  19
ATOM     14  O   UNL     1      26.215  22.419  11.067  0.00  0.00    +0.000 OA
ATOM     15  C   UNL     1      27.431  22.620  11.723  0.00  0.00    +0.000 A 
ATOM     16  C   UNL     1      27.404  23.389  12.858  0.00  0.00    +0.000 A 
ATOM     17  C   UNL     1      28.582  23.610  13.534  0.00  0.00    +0.000 A 
ATOM     18  C   UNL     1      29.737  23.060  13.056  0.00  0.00    +0.000 A 
ATOM     19  C   UNL     1      29.796  22.274  11.908  0.00  0.00    +0.000 A 
ATOM     20  C   UNL     1      28.607  22.066  11.246  0.00  0.00    +0.000 A 
ENDBRANCH   1  19
TORSDOF 1
ENDMDL
MODEL 4
REMARK VINA RESULT:      -6.8      4.078      5.786
REMARK  Name = 
REMARK  1 active torsions:
REMARK  status: ('A' for Active; 'I' for Inactive)
REMARK    1  A    between atoms: C_6  and  N_7
REMARK                            x       y       z     vdW  Elec       q    Type
REMARK                         _______ _______ _______ _____ _____    ______ ____
ROOT
ATOM      1  N   UNL     1      19.752  10.806  37.749  0.00  0.00    +0.000 NA
ATOM      2  C   UNL     1      20.646  11.780  38.240  0.00  0.00    +0.000 A 
ATOM      3  N   UNL     1      20.122  12.731  39.022  0.00  0.00    +0.000 NA
ATOM      4  C   UNL     1      20.811  13.734  39.578  0.00  0.00    +0.000 A 
ATOM      5  N   UNL     1      22.128  13.754  39.306  0.00  0.00    +0.000 NA
ATOM      6  C   UNL     1      22.714  12.809  38.514  0.00  0.00    +0.000 A 
ATOM      7  S   UNL     1      24.313  12.552  37.987  0.00  0.00    +0.000 S 
ATOM      8  C   UNL     1      24.067  11.144  37.052  0.00  0.00    +0.000 A 
ATOM      9  C   UNL     1      22.743  10.916  37.177  0.00  0.00    +0.000 A 
ATOM     10  C   UNL     1      22.020  11.781  37.941  0.00  0.00    +0.000 A 
ATOM     11  C   UNL     1      22.478   9.670  36.348  0.00  0.00    +0.000 C 
ATOM     12  C   UNL     1      23.788   8.935  36.477  0.00  0.00    +0.000 C 
ATOM     13  C   UNL     1      24.744  10.104  36.182  0.00  0.00    +0.000 C 
ENDROOT
BRANCH   1  19
ATOM     14  O   UNL     1      15.056  11.836  36.871  0.00  0.00    +0.000 OA
ATOM     15  C   UNL     1      16.069  11.232  37.617  0.00  0.00    +0.000 A 
ATOM     16  C   UNL     1      15.684  10.512  38.719  0.00  0.00    +0.000 A 
ATOM     17  C   UNL     1      16.653   9.902  39.481  0.00  0.00    +0.000 A 
ATOM     18  C   UNL     1      17.963  10.030  39.120  0.00  0.00    +0.000 A 
ATOM     19  C   UNL     1      18.386  10.753  38.007  0.00  0.00    +0.000 A 
ATOM     20  C   UNL     1      17.401  11.356  37.258  0.00  0.00    +0.000 A 
ENDBRANCH   1  19
TORSDOF 1
ENDMDL
MODEL 5
REMARK VINA RESULT:      -6.8      2.549      3.214
REMARK  Name = 
REMARK  1 active torsions:
REMARK  status: ('A' for Active; 'I' for Inactive)
REMARK    1  A    between atoms: C_6  and  N_7
REMARK                            x       y       z     vdW  Elec       q    Type
REMARK                         _______ _______ _______ _____ _____    ______ ____
ROOT
ATOM      1  N   UNL     1      16.907  10.260  37.571  0.00  0.00    +0.000 NA
ATOM      2  C   UNL     1      18.232  10.008  37.982  0.00  0.00    +0.000 A 
ATOM      3  N   UNL     1      19.189  10.208  37.069  0.00  0.00    +0.000 NA
ATOM      4  C   UNL     1      20.498  10.023  37.274  0.00  0.00    +0.000 A 
ATOM      5  N   UNL     1      20.838   9.601  38.506  0.00  0.00    +0.000 NA
ATOM      6  C   UNL     1      19.902   9.381  39.475  0.00  0.00    +0.000 A 
ATOM      7  S   UNL     1      19.995   8.860  41.094  0.00  0.00    +0.000 S 
ATOM      8  C   UNL     1      18.332   8.891  41.484  0.00  0.00    +0.000 A 
ATOM      9  C   UNL     1      17.752   9.306  40.338  0.00  0.00    +0.000 A 
ATOM     10  C   UNL     1      18.563   9.567  39.276  0.00  0.00    +0.000 A 
ATOM     11  C   UNL     1      16.263   9.339  40.640  0.00  0.00    +0.000 C 
ATOM     12  C   UNL     1      16.259   9.663  42.113  0.00  0.00    +0.000 C 
ATOM     13  C   UNL     1      17.315   8.645  42.580  0.00  0.00    +0.000 C 
ENDROOT
BRANCH   1  19
ATOM     14  O   UNL     1      16.966  10.230  32.683  0.00  0.00    +0.000 OA
ATOM     15  C   UNL     1      16.513  10.718  33.910  0.00  0.00    +0.000 A 
ATOM     16  C   UNL     1      15.588  11.730  33.872  0.00  0.00    +0.000 A 
ATOM     17  C   UNL     1      15.116  12.239  35.060  0.00  0.00    +0.000 A 
ATOM     18  C   UNL     1      15.580  11.722  36.236  0.00  0.00    +0.000 A 
ATOM     19  C   UNL     1      16.517  10.695  36.308  0.00  0.00    +0.000 A 
ATOM     20  C   UNL     1      16.977  10.201  35.108  0.00  0.00    +0.000 A 
ENDBRANCH   1  19
TORSDOF 1
ENDMDL
MODEL 6
REMARK VINA RESULT:      -6.7     22.426     24.267
REMARK  Name = 
REMARK  1 active torsions:
REMARK  status: ('A' for Active; 'I' for Inactive)
REMARK    1  A    between atoms: C_6  and  N_7
REMARK                            x       y       z     vdW  Elec       q    Type
REMARK                         _______ _______ _______ _____ _____    ______ ____
ROOT
ATOM      1  N   UNL     1      21.935  -7.826  25.016  0.00  0.00    +0.000 NA
ATOM      2  C   UNL     1      21.606  -8.751  26.027  0.00  0.00    +0.000 A 
ATOM      3  N   UNL     1      22.501  -9.716  26.267  0.00  0.00    +0.000 NA
ATOM      4  C   UNL     1      22.365 -10.679  27.185  0.00  0.00    +0.000 A 
ATOM      5  N   UNL     1      21.226 -10.642  27.901  0.00  0.00    +0.000 NA
ATOM      6  C   UNL     1      20.280  -9.680  27.697  0.00  0.00    +0.000 A 
ATOM      7  S   UNL     1      18.768  -9.356  28.413  0.00  0.00    +0.000 S 
ATOM      8  C   UNL     1      18.333  -7.972  27.510  0.00  0.00    +0.000 A 
ATOM      9  C   UNL     1      19.380  -7.804  26.676  0.00  0.00    +0.000 A 
ATOM     10  C   UNL     1      20.408  -8.692  26.762  0.00  0.00    +0.000 A 
ATOM     11  C   UNL     1      19.028  -6.582  25.844  0.00  0.00    +0.000 C 
ATOM     12  C   UNL     1      18.191  -5.785  26.814  0.00  0.00    +0.000 C 
ATOM     13  C   UNL     1      17.269  -6.912  27.309  0.00  0.00    +0.000 C 
ENDROOT
BRANCH   1  19
ATOM     14  O   UNL     1      25.071  -9.705  21.772  0.00  0.00    +0.000 OA
ATOM     15  C   UNL     1      24.668  -8.715  22.671  0.00  0.00    +0.000 A 
ATOM     16  C   UNL     1      25.503  -7.637  22.822  0.00  0.00    +0.000 A 
ATOM     17  C   UNL     1      25.142  -6.640  23.698  0.00  0.00    +0.000 A 
ATOM     18  C   UNL     1      23.968  -6.752  24.387  0.00  0.00    +0.000 A 
ATOM     19  C   UNL     1      23.100  -7.833  24.254  0.00  0.00    +0.000 A 
ATOM     20  C   UNL     1      23.480  -8.820  23.373  0.00  0.00    +0.000 A 
ENDBRANCH   1  19
TORSDOF 1
ENDMDL
MODEL 7
REMARK VINA RESULT:      -6.5      2.693      4.516
REMARK  Name = 
REMARK  1 active torsions:
REMARK  status: ('A' for Active; 'I' for Inactive)
REMARK    1  A    between atoms: C_6  and  N_7
REMARK                            x       y       z     vdW  Elec       q    Type
REMARK                         _______ _______ _______ _____ _____    ______ ____
ROOT
ATOM      1  N   UNL     1      18.596  10.473  36.204  0.00  0.00    +0.000 NA
ATOM      2  C   UNL     1      18.615  10.059  37.551  0.00  0.00    +0.000 A 
ATOM      3  N   UNL     1      17.432   9.989  38.171  0.00  0.00    +0.000 NA
ATOM      4  C   UNL     1      17.251   9.617  39.443  0.00  0.00    +0.000 A 
ATOM      5  N   UNL     1      18.370   9.297  40.119  0.00  0.00    +0.000 NA
ATOM      6  C   UNL     1      19.603   9.350  39.534  0.00  0.00    +0.000 A 
ATOM      7  S   UNL     1      21.177   9.019  40.094  0.00  0.00    +0.000 S 
ATOM      8  C   UNL     1      22.050   9.367  38.667  0.00  0.00    +0.000 A 
ATOM      9  C   UNL     1      21.086   9.733  37.796  0.00  0.00    +0.000 A 
ATOM     10  C   UNL     1      19.798   9.729  38.237  0.00  0.00    +0.000 A 
ATOM     11  C   UNL     1      21.824  10.062  36.508  0.00  0.00    +0.000 C 
ATOM     12  C   UNL     1      23.007   9.129  36.589  0.00  0.00    +0.000 C 
ATOM     13  C   UNL     1      23.429   9.411  38.042  0.00  0.00    +0.000 C 
ENDROOT
BRANCH   1  19
ATOM     14  O   UNL     1      14.501  12.997  35.340  0.00  0.00    +0.000 OA
ATOM     15  C   UNL     1      15.446  12.025  35.008  0.00  0.00    +0.000 A 
ATOM     16  C   UNL     1      15.238  11.330  33.844  0.00  0.00    +0.000 A 
ATOM     17  C   UNL     1      16.147  10.363  33.481  0.00  0.00    +0.000 A 
ATOM     18  C   UNL     1      17.223  10.125  34.287  0.00  0.00    +0.000 A 
ATOM     19  C   UNL     1      17.461  10.813  35.474  0.00  0.00    +0.000 A 
ATOM     20  C   UNL     1      16.540  11.776  35.819  0.00  0.00    +0.000 A 
ENDBRANCH   1  19
TORSDOF 1
ENDMDL
MODEL 8
REMARK VINA RESULT:      -6.5     20.396     23.043
REMARK  Name = 
REMARK  1 active torsions:
REMARK  status: ('A' for Active; 'I' for Inactive)
REMARK    1  A    between atoms: C_6  and  N_7
REMARK                            x       y       z     vdW  Elec       q    Type
REMARK                         _______ _______ _______ _____ _____    ______ ____
ROOT
ATOM      1  N   UNL     1      31.638  22.671  27.977  0.00  0.00    +0.000 NA
ATOM      2  C   UNL     1      30.244  22.725  28.176  0.00  0.00    +0.000 A 
ATOM      3  N   UNL     1      29.820  22.685  29.444  0.00  0.00    +0.000 NA
ATOM      4  C   UNL     1      28.538  22.725  29.827  0.00  0.00    +0.000 A 
ATOM      5  N   UNL     1      27.637  22.811  28.831  0.00  0.00    +0.000 NA
ATOM      6  C   UNL     1      28.016  22.855  27.521  0.00  0.00    +0.000 A 
ATOM      7  S   UNL     1      27.151  22.961  26.057  0.00  0.00    +0.000 S 
ATOM      8  C   UNL     1      28.465  22.953  24.965  0.00  0.00    +0.000 A 
ATOM      9  C   UNL     1      29.541  22.867  25.776  0.00  0.00    +0.000 A 
ATOM     10  C   UNL     1      29.320  22.814  27.118  0.00  0.00    +0.000 A 
ATOM     11  C   UNL     1      30.738  22.847  24.840  0.00  0.00    +0.000 C 
ATOM     12  C   UNL     1      30.233  23.675  23.684  0.00  0.00    +0.000 C 
ATOM     13  C   UNL     1      28.857  23.010  23.503  0.00  0.00    +0.000 C 
ENDROOT
BRANCH   1  19
ATOM     14  O   UNL     1      34.017  20.440  31.617  0.00  0.00    +0.000 OA
ATOM     15  C   UNL     1      33.795  21.527  30.770  0.00  0.00    +0.000 A 
ATOM     16  C   UNL     1      34.604  22.622  30.940  0.00  0.00    +0.000 A 
ATOM     17  C   UNL     1      34.417  23.714  30.126  0.00  0.00    +0.000 A 
ATOM     18  C   UNL     1      33.436  23.677  29.176  0.00  0.00    +0.000 A 
ATOM     19  C   UNL     1      32.600  22.581  28.979  0.00  0.00    +0.000 A 
ATOM     20  C   UNL     1      32.803  21.498  29.805  0.00  0.00    +0.000 A 
ENDBRANCH   1  19
TORSDOF 1
ENDMDL
MODEL 9
REMARK VINA RESULT:      -6.5     21.626     22.849
REMARK  Name = 
REMARK  1 active torsions:
REMARK  status: ('A' for Active; 'I' for Inactive)
REMARK    1  A    between atoms: C_6  and  N_7
REMARK                            x       y       z     vdW  Elec       q    Type
REMARK                         _______ _______ _______ _____ _____    ______ ____
ROOT
ATOM      1  N   UNL     1      17.423  -9.018  27.821  0.00  0.00    +0.000 NA
ATOM      2  C   UNL     1      17.745  -9.627  29.051  0.00  0.00    +0.000 A 
ATOM      3  N   UNL     1      18.842  -9.177  29.671  0.00  0.00    +0.000 NA
ATOM      4  C   UNL     1      19.303  -9.630  30.842  0.00  0.00    +0.000 A 
ATOM      5  N   UNL     1      18.582 -10.616  31.407  0.00  0.00    +0.000 NA
ATOM      6  C   UNL     1      17.455 -11.111  30.817  0.00  0.00    +0.000 A 
ATOM      7  S   UNL     1      16.342 -12.324  31.257  0.00  0.00    +0.000 S 
ATOM      8  C   UNL     1      15.291 -12.226  29.914  0.00  0.00    +0.000 A 
ATOM      9  C   UNL     1      15.840 -11.249  29.161  0.00  0.00    +0.000 A 
ATOM     10  C   UNL     1      16.975 -10.656  29.622  0.00  0.00    +0.000 A 
ATOM     11  C   UNL     1      14.936 -11.135  27.945  0.00  0.00    +0.000 C 
ATOM     12  C   UNL     1      13.599 -11.526  28.523  0.00  0.00    +0.000 C 
ATOM     13  C   UNL     1      14.033 -12.790  29.285  0.00  0.00    +0.000 C 
ENDROOT
BRANCH   1  19
ATOM     14  O   UNL     1      18.306  -4.378  26.564  0.00  0.00    +0.000 OA
ATOM     15  C   UNL     1      18.618  -5.739  26.563  0.00  0.00    +0.000 A 
ATOM     16  C   UNL     1      19.749  -6.115  25.885  0.00  0.00    +0.000 A 
ATOM     17  C   UNL     1      20.091  -7.447  25.860  0.00  0.00    +0.000 A 
ATOM     18  C   UNL     1      19.298  -8.351  26.508  0.00  0.00    +0.000 A 
ATOM     19  C   UNL     1      18.144  -7.999  27.204  0.00  0.00    +0.000 A 
ATOM     20  C   UNL     1      17.819  -6.662  27.217  0.00  0.00    +0.000 A 
ENDBRANCH   1  19
TORSDOF 1
ENDMDL
MODEL 10
REMARK VINA RESULT:      -6.4     20.074     22.051
REMARK  Name = 
REMARK  1 active torsions:
REMARK  status: ('A' for Active; 'I' for Inactive)
REMARK    1  A    between atoms: C_6  and  N_7
REMARK                            x       y       z     vdW  Elec       q    Type
REMARK                         _______ _______ _______ _____ _____    ______ ____
ROOT
ATOM      1  N   UNL     1      28.637  23.682  25.665  0.00  0.00    +0.000 NA
ATOM      2  C   UNL     1      27.907  23.672  26.871  0.00  0.00    +0.000 A 
ATOM      3  N   UNL     1      26.609  23.984  26.785  0.00  0.00    +0.000 NA
ATOM      4  C   UNL     1      25.759  24.027  27.817  0.00  0.00    +0.000 A 
ATOM      5  N   UNL     1      26.289  23.728  29.018  0.00  0.00    +0.000 NA
ATOM      6  C   UNL     1      27.606  23.403  29.161  0.00  0.00    +0.000 A 
ATOM      7  S   UNL     1      28.567  22.983  30.504  0.00  0.00    +0.000 S 
ATOM      8  C   UNL     1      30.061  22.756  29.707  0.00  0.00    +0.000 A 
ATOM      9  C   UNL     1      29.766  23.015  28.416  0.00  0.00    +0.000 A 
ATOM     10  C   UNL     1      28.483  23.356  28.115  0.00  0.00    +0.000 A 
ATOM     11  C   UNL     1      31.077  22.833  27.668  0.00  0.00    +0.000 C 
ATOM     12  C   UNL     1      31.757  21.776  28.502  0.00  0.00    +0.000 C 
ATOM     13  C   UNL     1      31.518  22.385  29.895  0.00  0.00    +0.000 C 
ENDROOT
BRANCH   1  19
ATOM     14  O   UNL     1      25.684  23.022  21.827  0.00  0.00    +0.000 OA
ATOM     15  C   UNL     1      26.699  23.702  22.502  0.00  0.00    +0.000 A 
ATOM     16  C   UNL     1      27.253  24.782  21.863  0.00  0.00    +0.000 A 
ATOM     17  C   UNL     1      28.257  25.479  22.495  0.00  0.00    +0.000 A 
ATOM     18  C   UNL     1      28.669  25.077  23.733  0.00  0.00    +0.000 A 
ATOM     19  C   UNL     1      28.126  23.986  24.407  0.00  0.00    +0.000 A 
ATOM     20  C   UNL     1      27.124  23.302  23.758  0.00  0.00    +0.000 A 
ENDBRANCH   1  19
TORSDOF 1
ENDMDL
