MODEL 1
REMARK VINA RESULT:      -6.8      0.000      0.000
REMARK  Name = 
REMARK  2 active torsions:
REMARK  status: ('A' for Active; 'I' for Inactive)
REMARK    1  A    between atoms: O_2  and  C_3
REMARK    2  A    between atoms: C_9  and  N_10
REMARK                            x       y       z     vdW  Elec       q    Type
REMARK                         _______ _______ _______ _____ _____    ______ ____
ROOT
ATOM      1  N   UNL     1      16.606  11.584  35.904  0.00  0.00    +0.000 N 
ATOM      2  C   UNL     1      16.280  10.605  36.955  0.00  0.00    +0.000 C 
ATOM      3  C   UNL     1      17.515  10.725  37.817  0.00  0.00    +0.000 A 
ATOM      4  C   UNL     1      18.058   9.887  38.778  0.00  0.00    +0.000 A 
ATOM      5  N   UNL     1      19.185  10.184  39.438  0.00  0.00    +0.000 NA
ATOM      6  C   UNL     1      19.821  11.342  39.159  0.00  0.00    +0.000 A 
ATOM      7  C   UNL     1      21.091  11.716  39.878  0.00  0.00    +0.000 C 
ATOM      8  C   UNL     1      19.335  12.215  38.218  0.00  0.00    +0.000 A 
ATOM      9  O   UNL     1      19.985  13.425  37.917  0.00  0.00    +0.000 OA
ATOM     10  C   UNL     1      18.174  11.901  37.544  0.00  0.00    +0.000 A 
ATOM     11  C   UNL     1      17.407  12.632  36.485  0.00  0.00    +0.000 C 
ENDROOT
BRANCH   1  18
ATOM     12  C   UNL     1      15.107  12.235  34.127  0.00  0.00    +0.000 A 
ATOM     13  C   UNL     1      14.682  12.173  32.804  0.00  0.00    +0.000 A 
ATOM     14  C   UNL     1      15.339  11.375  31.888  0.00  0.00    +0.000 A 
ATOM     15  O   UNL     1      14.890  11.331  30.565  0.00  0.00    +0.000 OA
ATOM     16  C   UNL     1      16.412  10.660  32.340  0.00  0.00    +0.000 A 
ATOM     17  C   UNL     1      16.868  10.691  33.634  0.00  0.00    +0.000 A 
ATOM     18  C   UNL     1      16.200  11.500  34.560  0.00  0.00    +0.000 A 
BRANCH  12  20
ATOM     19  C   UNL     1      13.614  14.058  34.573  0.00  0.00    +0.000 C 
ATOM     20  O   UNL     1      14.456  13.038  35.073  0.00  0.00    +0.000 OA
ENDBRANCH  12  20
ENDBRANCH   1  18
TORSDOF 2
ENDMDL
MODEL 2
REMARK VINA RESULT:      -6.4      2.595      6.474
REMARK  Name = 
REMARK  2 active torsions:
REMARK  status: ('A' for Active; 'I' for Inactive)
REMARK    1  A    between atoms: O_2  and  C_3
REMARK    2  A    between atoms: C_9  and  N_10
REMARK                            x       y       z     vdW  Elec       q    Type
REMARK                         _______ _______ _______ _____ _____    ______ ____
ROOT
ATOM      1  N   UNL     1      16.671  11.055  37.034  0.00  0.00    +0.000 N 
ATOM      2  C   UNL     1      17.546  10.520  35.977  0.00  0.00    +0.000 C 
ATOM      3  C   UNL     1      16.765  10.938  34.753  0.00  0.00    +0.000 A 
ATOM      4  C   UNL     1      16.799  10.499  33.440  0.00  0.00    +0.000 A 
ATOM      5  N   UNL     1      16.005  11.010  32.489  0.00  0.00    +0.000 NA
ATOM      6  C   UNL     1      15.135  11.989  32.819  0.00  0.00    +0.000 A 
ATOM      7  C   UNL     1      14.223  12.592  31.783  0.00  0.00    +0.000 C 
ATOM      8  C   UNL     1      15.052  12.467  34.104  0.00  0.00    +0.000 A 
ATOM      9  O   UNL     1      14.153  13.486  34.463  0.00  0.00    +0.000 OA
ATOM     10  C   UNL     1      15.875  11.935  35.075  0.00  0.00    +0.000 A 
ATOM     11  C   UNL     1      16.019  12.240  36.534  0.00  0.00    +0.000 C 
ENDROOT
BRANCH   1  18
ATOM     12  C   UNL     1      15.241  10.448  38.883  0.00  0.00    +0.000 A 
ATOM     13  C   UNL     1      15.047   9.901  40.147  0.00  0.00    +0.000 A 
ATOM     14  C   UNL     1      16.109   9.391  40.867  0.00  0.00    +0.000 A 
ATOM     15  O   UNL     1      15.885   8.848  42.135  0.00  0.00    +0.000 OA
ATOM     16  C   UNL     1      17.343   9.450  40.285  0.00  0.00    +0.000 A 
ATOM     17  C   UNL     1      17.584   9.980  39.041  0.00  0.00    +0.000 A 
ATOM     18  C   UNL     1      16.505  10.496  38.313  0.00  0.00    +0.000 A 
BRANCH  12  20
ATOM     19  C   UNL     1      12.874  10.715  38.614  0.00  0.00    +0.000 C 
ATOM     20  O   UNL     1      14.179  10.971  38.134  0.00  0.00    +0.000 OA
ENDBRANCH  12  20
ENDBRANCH   1  18
TORSDOF 2
ENDMDL
MODEL 3
REMARK VINA RESULT:      -6.3      2.035      6.826
REMARK  Name = 
REMARK  2 active torsions:
REMARK  status: ('A' for Active; 'I' for Inactive)
REMARK    1  A    between atoms: O_2  and  C_3
REMARK    2  A    between atoms: C_9  and  N_10
REMARK                            x       y       z     vdW  Elec       q    Type
REMARK                         _______ _______ _______ _____ _____    ______ ____
ROOT
ATOM      1  N   UNL     1      17.509  10.959  37.185  0.00  0.00    +0.000 N 
ATOM      2  C   UNL     1      16.160  11.537  37.300  0.00  0.00    +0.000 C 
ATOM      3  C   UNL     1      15.823  11.709  35.837  0.00  0.00    +0.000 A 
ATOM      4  C   UNL     1      14.877  12.488  35.191  0.00  0.00    +0.000 A 
ATOM      5  N   UNL     1      14.740  12.498  33.858  0.00  0.00    +0.000 NA
ATOM      6  C   UNL     1      15.555  11.720  33.112  0.00  0.00    +0.000 A 
ATOM      7  C   UNL     1      15.436  11.700  31.610  0.00  0.00    +0.000 C 
ATOM      8  C   UNL     1      16.513  10.926  33.691  0.00  0.00    +0.000 A 
ATOM      9  O   UNL     1      17.367  10.111  32.928  0.00  0.00    +0.000 OA
ATOM     10  C   UNL     1      16.644  10.923  35.064  0.00  0.00    +0.000 A 
ATOM     11  C   UNL     1      17.573  10.179  35.974  0.00  0.00    +0.000 C 
ENDROOT
BRANCH   1  18
ATOM     12  C   UNL     1      18.700  10.259  39.166  0.00  0.00    +0.000 A 
ATOM     13  C   UNL     1      19.725  10.416  40.093  0.00  0.00    +0.000 A 
ATOM     14  C   UNL     1      20.623  11.459  39.984  0.00  0.00    +0.000 A 
ATOM     15  O   UNL     1      21.643  11.593  40.931  0.00  0.00    +0.000 OA
ATOM     16  C   UNL     1      20.458  12.316  38.933  0.00  0.00    +0.000 A 
ATOM     17  C   UNL     1      19.465  12.201  37.994  0.00  0.00    +0.000 A 
ATOM     18  C   UNL     1      18.555  11.144  38.107  0.00  0.00    +0.000 A 
BRANCH  12  20
ATOM     19  C   UNL     1      16.911   9.216  40.374  0.00  0.00    +0.000 C 
ATOM     20  O   UNL     1      17.778   9.209  39.257  0.00  0.00    +0.000 OA
ENDBRANCH  12  20
ENDBRANCH   1  18
TORSDOF 2
ENDMDL
MODEL 4
REMARK VINA RESULT:      -6.3      2.363      3.716
REMARK  Name = 
REMARK  2 active torsions:
REMARK  status: ('A' for Active; 'I' for Inactive)
REMARK    1  A    between atoms: O_2  and  C_3
REMARK    2  A    between atoms: C_9  and  N_10
REMARK                            x       y       z     vdW  Elec       q    Type
REMARK                         _______ _______ _______ _____ _____    ______ ____
ROOT
ATOM      1  N   UNL     1      17.621  10.539  37.694  0.00  0.00    +0.000 N 
ATOM      2  C   UNL     1      18.269   9.440  36.959  0.00  0.00    +0.000 C 
ATOM      3  C   UNL     1      19.707   9.898  37.019  0.00  0.00    +0.000 A 
ATOM      4  C   UNL     1      20.820   9.551  36.270  0.00  0.00    +0.000 A 
ATOM      5  N   UNL     1      22.030  10.086  36.486  0.00  0.00    +0.000 NA
ATOM      6  C   UNL     1      22.174  11.000  37.471  0.00  0.00    +0.000 A 
ATOM      7  C   UNL     1      23.514  11.627  37.749  0.00  0.00    +0.000 C 
ATOM      8  C   UNL     1      21.110  11.386  38.248  0.00  0.00    +0.000 A 
ATOM      9  O   UNL     1      21.245  12.335  39.276  0.00  0.00    +0.000 OA
ATOM     10  C   UNL     1      19.870  10.829  38.017  0.00  0.00    +0.000 A 
ATOM     11  C   UNL     1      18.544  11.039  38.682  0.00  0.00    +0.000 C 
ENDROOT
BRANCH   1  18
ATOM     12  C   UNL     1      16.042  11.723  36.301  0.00  0.00    +0.000 A 
ATOM     13  C   UNL     1      14.763  12.207  36.045  0.00  0.00    +0.000 A 
ATOM     14  C   UNL     1      13.735  11.995  36.942  0.00  0.00    +0.000 A 
ATOM     15  O   UNL     1      12.460  12.493  36.659  0.00  0.00    +0.000 OA
ATOM     16  C   UNL     1      14.032  11.297  38.078  0.00  0.00    +0.000 A 
ATOM     17  C   UNL     1      15.277  10.800  38.373  0.00  0.00    +0.000 A 
ATOM     18  C   UNL     1      16.318  11.016  37.462  0.00  0.00    +0.000 A 
BRANCH  12  20
ATOM     19  C   UNL     1      16.921  11.445  34.087  0.00  0.00    +0.000 C 
ATOM     20  O   UNL     1      17.101  11.926  35.406  0.00  0.00    +0.000 OA
ENDBRANCH  12  20
ENDBRANCH   1  18
TORSDOF 2
ENDMDL
MODEL 5
REMARK VINA RESULT:      -6.2      2.542      6.186
REMARK  Name = 
REMARK  2 active torsions:
REMARK  status: ('A' for Active; 'I' for Inactive)
REMARK    1  A    between atoms: O_2  and  C_3
REMARK    2  A    between atoms: C_9  and  N_10
REMARK                            x       y       z     vdW  Elec       q    Type
REMARK                         _______ _______ _______ _____ _____    ______ ____
ROOT
ATOM      1  N   UNL     1      18.734  10.251  37.275  0.00  0.00    +0.000 N 
ATOM      2  C   UNL     1      17.929   9.678  38.366  0.00  0.00    +0.000 C 
ATOM      3  C   UNL     1      16.608  10.364  38.105  0.00  0.00    +0.000 A 
ATOM      4  C   UNL     1      15.498  10.569  38.908  0.00  0.00    +0.000 A 
ATOM      5  N   UNL     1      14.407  11.217  38.476  0.00  0.00    +0.000 NA
ATOM      6  C   UNL     1      14.385  11.691  37.211  0.00  0.00    +0.000 A 
ATOM      7  C   UNL     1      13.181  12.425  36.685  0.00  0.00    +0.000 C 
ATOM      8  C   UNL     1      15.454  11.520  36.366  0.00  0.00    +0.000 A 
ATOM      9  O   UNL     1      15.446  12.006  35.047  0.00  0.00    +0.000 OA
ATOM     10  C   UNL     1      16.571  10.851  36.820  0.00  0.00    +0.000 A 
ATOM     11  C   UNL     1      17.868  10.511  36.152  0.00  0.00    +0.000 C 
ENDROOT
BRANCH   1  18
ATOM     12  C   UNL     1      20.589  11.606  38.019  0.00  0.00    +0.000 A 
ATOM     13  C   UNL     1      21.952  11.878  38.089  0.00  0.00    +0.000 A 
ATOM     14  C   UNL     1      22.870  11.052  37.472  0.00  0.00    +0.000 A 
ATOM     15  O   UNL     1      24.233  11.349  37.558  0.00  0.00    +0.000 OA
ATOM     16  C   UNL     1      22.380   9.969  36.798  0.00  0.00    +0.000 A 
ATOM     17  C   UNL     1      21.046   9.660  36.702  0.00  0.00    +0.000 A 
ATOM     18  C   UNL     1      20.117  10.500  37.329  0.00  0.00    +0.000 A 
BRANCH  12  20
ATOM     19  C   UNL     1      19.841  13.826  38.530  0.00  0.00    +0.000 C 
ATOM     20  O   UNL     1      19.640  12.430  38.638  0.00  0.00    +0.000 OA
ENDBRANCH  12  20
ENDBRANCH   1  18
TORSDOF 2
ENDMDL
MODEL 6
REMARK VINA RESULT:      -6.2      1.936      6.684
REMARK  Name = 
REMARK  2 active torsions:
REMARK  status: ('A' for Active; 'I' for Inactive)
REMARK    1  A    between atoms: O_2  and  C_3
REMARK    2  A    between atoms: C_9  and  N_10
REMARK                            x       y       z     vdW  Elec       q    Type
REMARK                         _______ _______ _______ _____ _____    ______ ____
ROOT
ATOM      1  N   UNL     1      17.340  10.119  37.274  0.00  0.00    +0.000 N 
ATOM      2  C   UNL     1      16.044  10.796  37.452  0.00  0.00    +0.000 C 
ATOM      3  C   UNL     1      15.800  11.269  36.038  0.00  0.00    +0.000 A 
ATOM      4  C   UNL     1      14.962  12.244  35.521  0.00  0.00    +0.000 A 
ATOM      5  N   UNL     1      14.896  12.516  34.210  0.00  0.00    +0.000 NA
ATOM      6  C   UNL     1      15.674  11.814  33.357  0.00  0.00    +0.000 A 
ATOM      7  C   UNL     1      15.631  12.085  31.876  0.00  0.00    +0.000 C 
ATOM      8  C   UNL     1      16.525  10.835  33.807  0.00  0.00    +0.000 A 
ATOM      9  O   UNL     1      17.340  10.097  32.931  0.00  0.00    +0.000 OA
ATOM     10  C   UNL     1      16.585  10.564  35.158  0.00  0.00    +0.000 A 
ATOM     11  C   UNL     1      17.395   9.576  35.940  0.00  0.00    +0.000 C 
ENDROOT
BRANCH   1  18
ATOM     12  C   UNL     1      19.162  11.119  38.504  0.00  0.00    +0.000 A 
ATOM     13  C   UNL     1      20.168  11.055  39.462  0.00  0.00    +0.000 A 
ATOM     14  C   UNL     1      20.383   9.898  40.184  0.00  0.00    +0.000 A 
ATOM     15  O   UNL     1      21.402   9.862  41.140  0.00  0.00    +0.000 OA
ATOM     16  C   UNL     1      19.570   8.834  39.914  0.00  0.00    +0.000 A 
ATOM     17  C   UNL     1      18.566   8.850  38.979  0.00  0.00    +0.000 A 
ATOM     18  C   UNL     1      18.349  10.025  38.249  0.00  0.00    +0.000 A 
BRANCH  12  20
ATOM     19  C   UNL     1      19.636  13.442  38.145  0.00  0.00    +0.000 C 
ATOM     20  O   UNL     1      18.924  12.283  37.760  0.00  0.00    +0.000 OA
ENDBRANCH  12  20
ENDBRANCH   1  18
TORSDOF 2
ENDMDL
MODEL 7
REMARK VINA RESULT:      -6.1     18.531     19.332
REMARK  Name = 
REMARK  2 active torsions:
REMARK  status: ('A' for Active; 'I' for Inactive)
REMARK    1  A    between atoms: O_2  and  C_3
REMARK    2  A    between atoms: C_9  and  N_10
REMARK                            x       y       z     vdW  Elec       q    Type
REMARK                         _______ _______ _______ _____ _____    ______ ____
ROOT
ATOM      1  N   UNL     1      27.094  23.433  25.518  0.00  0.00    +0.000 N 
ATOM      2  C   UNL     1      27.513  22.388  26.467  0.00  0.00    +0.000 C 
ATOM      3  C   UNL     1      27.094  23.032  27.767  0.00  0.00    +0.000 A 
ATOM      4  C   UNL     1      27.465  22.792  29.080  0.00  0.00    +0.000 A 
ATOM      5  N   UNL     1      26.968  23.491  30.109  0.00  0.00    +0.000 NA
ATOM      6  C   UNL     1      26.070  24.470  29.861  0.00  0.00    +0.000 A 
ATOM      7  C   UNL     1      25.485  25.282  30.987  0.00  0.00    +0.000 C 
ATOM      8  C   UNL     1      25.661  24.758  28.583  0.00  0.00    +0.000 A 
ATOM      9  O   UNL     1      24.728  25.772  28.309  0.00  0.00    +0.000 OA
ATOM     10  C   UNL     1      26.180  24.031  27.531  0.00  0.00    +0.000 A 
ATOM     11  C   UNL     1      25.936  24.104  26.055  0.00  0.00    +0.000 C 
ENDROOT
BRANCH   1  18
ATOM     12  C   UNL     1      29.019  24.220  24.290  0.00  0.00    +0.000 A 
ATOM     13  C   UNL     1      29.668  24.515  23.096  0.00  0.00    +0.000 A 
ATOM     14  C   UNL     1      29.038  24.319  21.883  0.00  0.00    +0.000 A 
ATOM     15  O   UNL     1      29.714  24.624  20.698  0.00  0.00    +0.000 OA
ATOM     16  C   UNL     1      27.764  23.828  21.913  0.00  0.00    +0.000 A 
ATOM     17  C   UNL     1      27.084  23.522  23.066  0.00  0.00    +0.000 A 
ATOM     18  C   UNL     1      27.724  23.722  24.294  0.00  0.00    +0.000 A 
BRANCH  12  20
ATOM     19  C   UNL     1      30.950  23.904  25.676  0.00  0.00    +0.000 C 
ATOM     20  O   UNL     1      29.638  24.411  25.533  0.00  0.00    +0.000 OA
ENDBRANCH  12  20
ENDBRANCH   1  18
TORSDOF 2
ENDMDL
MODEL 8
REMARK VINA RESULT:      -6.1      2.862      4.489
REMARK  Name = 
REMARK  2 active torsions:
REMARK  status: ('A' for Active; 'I' for Inactive)
REMARK    1  A    between atoms: O_2  and  C_3
REMARK    2  A    between atoms: C_9  and  N_10
REMARK                            x       y       z     vdW  Elec       q    Type
REMARK                         _______ _______ _______ _____ _____    ______ ____
ROOT
ATOM      1  N   UNL     1      18.881  10.928  37.797  0.00  0.00    +0.000 N 
ATOM      2  C   UNL     1      19.583   9.796  37.167  0.00  0.00    +0.000 C 
ATOM      3  C   UNL     1      20.997  10.326  37.179  0.00  0.00    +0.000 A 
ATOM      4  C   UNL     1      22.126   9.964  36.462  0.00  0.00    +0.000 A 
ATOM      5  N   UNL     1      23.308  10.575  36.623  0.00  0.00    +0.000 NA
ATOM      6  C   UNL     1      23.407  11.584  37.516  0.00  0.00    +0.000 A 
ATOM      7  C   UNL     1      24.715  12.298  37.730  0.00  0.00    +0.000 C 
ATOM      8  C   UNL     1      22.325  11.990  38.257  0.00  0.00    +0.000 A 
ATOM      9  O   UNL     1      22.412  13.037  39.191  0.00  0.00    +0.000 OA
ATOM     10  C   UNL     1      21.113  11.354  38.084  0.00  0.00    +0.000 A 
ATOM     11  C   UNL     1      19.778  11.562  38.730  0.00  0.00    +0.000 C 
ENDROOT
BRANCH   1  18
ATOM     12  C   UNL     1      16.516  10.769  38.261  0.00  0.00    +0.000 A 
ATOM     13  C   UNL     1      15.197  11.135  38.015  0.00  0.00    +0.000 A 
ATOM     14  C   UNL     1      14.890  12.053  37.031  0.00  0.00    +0.000 A 
ATOM     15  O   UNL     1      13.556  12.402  36.805  0.00  0.00    +0.000 OA
ATOM     16  C   UNL     1      15.933  12.577  36.320  0.00  0.00    +0.000 A 
ATOM     17  C   UNL     1      17.249  12.248  36.527  0.00  0.00    +0.000 A 
ATOM     18  C   UNL     1      17.557  11.317  37.526  0.00  0.00    +0.000 A 
BRANCH  12  20
ATOM     19  C   UNL     1      15.944   9.703  40.331  0.00  0.00    +0.000 C 
ATOM     20  O   UNL     1      16.851   9.840  39.255  0.00  0.00    +0.000 OA
ENDBRANCH  12  20
ENDBRANCH   1  18
TORSDOF 2
ENDMDL
MODEL 9
REMARK VINA RESULT:      -6.0     18.411     19.749
REMARK  Name = 
REMARK  2 active torsions:
REMARK  status: ('A' for Active; 'I' for Inactive)
REMARK    1  A    between atoms: O_2  and  C_3
REMARK    2  A    between atoms: C_9  and  N_10
REMARK                            x       y       z     vdW  Elec       q    Type
REMARK                         _______ _______ _______ _____ _____    ______ ____
ROOT
ATOM      1  N   UNL     1      26.981  23.351  26.340  0.00  0.00    +0.000 N 
ATOM      2  C   UNL     1      26.063  22.874  25.292  0.00  0.00    +0.000 C 
ATOM      3  C   UNL     1      26.766  23.408  24.066  0.00  0.00    +0.000 A 
ATOM      4  C   UNL     1      26.324  23.634  22.772  0.00  0.00    +0.000 A 
ATOM      5  N   UNL     1      27.122  24.125  21.814  0.00  0.00    +0.000 NA
ATOM      6  C   UNL     1      28.407  24.413  22.117  0.00  0.00    +0.000 A 
ATOM      7  C   UNL     1      29.340  24.966  21.072  0.00  0.00    +0.000 C 
ATOM      8  C   UNL     1      28.905  24.212  23.381  0.00  0.00    +0.000 A 
ATOM      9  O   UNL     1      30.240  24.506  23.711  0.00  0.00    +0.000 OA
ATOM     10  C   UNL     1      28.075  23.706  24.359  0.00  0.00    +0.000 A 
ATOM     11  C   UNL     1      28.318  23.381  25.801  0.00  0.00    +0.000 C 
ENDROOT
BRANCH   1  18
ATOM     12  C   UNL     1      26.006  24.946  27.869  0.00  0.00    +0.000 A 
ATOM     13  C   UNL     1      25.625  25.334  29.150  0.00  0.00    +0.000 A 
ATOM     14  C   UNL     1      25.837  24.503  30.232  0.00  0.00    +0.000 A 
ATOM     15  O   UNL     1      25.444  24.918  31.507  0.00  0.00    +0.000 OA
ATOM     16  C   UNL     1      26.430  23.297  29.985  0.00  0.00    +0.000 A 
ATOM     17  C   UNL     1      26.822  22.872  28.741  0.00  0.00    +0.000 A 
ATOM     18  C   UNL     1      26.607  23.716  27.645  0.00  0.00    +0.000 A 
BRANCH  12  20
ATOM     19  C   UNL     1      25.726  27.164  27.000  0.00  0.00    +0.000 C 
ATOM     20  O   UNL     1      25.801  25.773  26.756  0.00  0.00    +0.000 OA
ENDBRANCH  12  20
ENDBRANCH   1  18
TORSDOF 2
ENDMDL
MODEL 10
REMARK VINA RESULT:      -5.8      2.501      6.944
REMARK  Name = 
REMARK  2 active torsions:
REMARK  status: ('A' for Active; 'I' for Inactive)
REMARK    1  A    between atoms: O_2  and  C_3
REMARK    2  A    between atoms: C_9  and  N_10
REMARK                            x       y       z     vdW  Elec       q    Type
REMARK                         _______ _______ _______ _____ _____    ______ ____
ROOT
ATOM      1  N   UNL     1      17.223  10.773  37.516  0.00  0.00    +0.000 N 
ATOM      2  C   UNL     1      18.114  10.226  36.479  0.00  0.00    +0.000 C 
ATOM      3  C   UNL     1      17.315  10.563  35.242  0.00  0.00    +0.000 A 
ATOM      4  C   UNL     1      17.362  10.071  33.948  0.00  0.00    +0.000 A 
ATOM      5  N   UNL     1      16.548  10.513  32.980  0.00  0.00    +0.000 NA
ATOM      6  C   UNL     1      15.644  11.473  33.272  0.00  0.00    +0.000 A 
ATOM      7  C   UNL     1      14.709  11.999  32.215  0.00  0.00    +0.000 C 
ATOM      8  C   UNL     1      15.547  12.002  34.536  0.00  0.00    +0.000 A 
ATOM      9  O   UNL     1      14.612  13.002  34.855  0.00  0.00    +0.000 OA
ATOM     10  C   UNL     1      16.390  11.541  35.525  0.00  0.00    +0.000 A 
ATOM     11  C   UNL     1      16.527  11.912  36.970  0.00  0.00    +0.000 C 
ENDROOT
BRANCH   1  18
ATOM     12  C   UNL     1      18.210   9.983  39.574  0.00  0.00    +0.000 A 
ATOM     13  C   UNL     1      18.099   9.478  40.865  0.00  0.00    +0.000 A 
ATOM     14  C   UNL     1      16.861   9.240  41.428  0.00  0.00    +0.000 A 
ATOM     15  O   UNL     1      16.780   8.731  42.727  0.00  0.00    +0.000 OA
ATOM     16  C   UNL     1      15.765   9.523  40.663  0.00  0.00    +0.000 A 
ATOM     17  C   UNL     1      15.823  10.023  39.387  0.00  0.00    +0.000 A 
ATOM     18  C   UNL     1      17.080  10.263  38.818  0.00  0.00    +0.000 A 
BRANCH  12  20
ATOM     19  C   UNL     1      20.498   9.327  39.287  0.00  0.00    +0.000 C 
ATOM     20  O   UNL     1      19.455  10.233  38.983  0.00  0.00    +0.000 OA
ENDBRANCH  12  20
ENDBRANCH   1  18
TORSDOF 2
ENDMDL
