MODEL 1
REMARK VINA RESULT:      -8.4      0.000      0.000
REMARK  Name = 
REMARK  7 active torsions:
REMARK  status: ('A' for Active; 'I' for Inactive)
REMARK    1  A    between atoms: C_2  and  N_3
REMARK    2  A    between atoms: N_3  and  C_4
REMARK    3  A    between atoms: N_3  and  C_6
REMARK    4  A    between atoms: C_6  and  C_7
REMARK    5  A    between atoms: C_7  and  O_8
REMARK    6  A    between atoms: O_8  and  C_9
REMARK    7  A    between atoms: C_13  and  C_14
REMARK                            x       y       z     vdW  Elec       q    Type
REMARK                         _______ _______ _______ _____ _____    ______ ____
ROOT
ATOM      1  C   UNL     1      37.280  -2.165  16.076  0.00  0.00    +0.000 A 
ATOM      2  C   UNL     1      38.367  -2.144  15.324  0.00  0.00    +0.000 A 
ATOM      3  C   UNL     1      38.360  -2.922  14.108  0.00  0.00    +0.000 A 
ATOM      4  C   UNL     1      37.307  -3.687  13.760  0.00  0.00    +0.000 A 
ATOM      5  C   UNL     1      36.158  -3.707  14.558  0.00  0.00    +0.000 A 
ATOM      6  C   UNL     1      35.038  -4.368  14.154  0.00  0.00    +0.000 A 
ATOM      7  C   UNL     1      33.796  -4.292  14.814  0.00  0.00    +0.000 A 
ATOM      8  C   UNL     1      33.729  -3.460  15.965  0.00  0.00    +0.000 A 
ATOM      9  O   UNL     1      32.579  -3.326  16.570  0.00  0.00    +0.000 OA
ATOM     10  C   UNL     1      34.940  -2.863  16.280  0.00  0.00    +0.000 A 
ATOM     11  C   UNL     1      36.123  -2.938  15.689  0.00  0.00    +0.000 A 
ATOM     12  C   UNL     1      39.605  -2.512  13.346  0.00  0.00    +0.000 A 
ATOM     13  C   UNL     1      39.883  -2.821  12.010  0.00  0.00    +0.000 A 
ATOM     14  C   UNL     1      40.973  -2.202  11.511  0.00  0.00    +0.000 A 
ATOM     15  C   UNL     1      41.780  -1.396  12.219  0.00  0.00    +0.000 A 
ATOM     16  O   UNL     1      42.938  -0.891  11.692  0.00  0.00    +0.000 OA
ATOM     17  C   UNL     1      41.472  -1.071  13.610  0.00  0.00    +0.000 A 
ATOM     18  C   UNL     1      40.307  -1.694  14.073  0.00  0.00    +0.000 A 
ATOM     19  C   UNL     1      39.717  -1.599  15.458  0.00  0.00    +0.000 C 
ENDROOT
BRANCH   1  24
ATOM     20  C   UNL     1      35.645   0.856  17.690  0.00  0.00    +0.000 A 
ATOM     21  C   UNL     1      35.660   0.296  18.968  0.00  0.00    +0.000 A 
ATOM     22  C   UNL     1      36.185  -0.780  19.379  0.00  0.00    +0.000 A 
ATOM     23  C   UNL     1      36.862  -1.686  18.501  0.00  0.00    +0.000 A 
ATOM     24  C   UNL     1      36.919  -1.246  17.185  0.00  0.00    +0.000 A 
ATOM     25  C   UNL     1      36.356  -0.017  16.783  0.00  0.00    +0.000 A 
BRANCH  20  26
ATOM     26  O   UNL     1      35.164   1.860  16.969  0.00  0.00    +0.000 OA
BRANCH  26  27
ATOM     27  C   UNL     1      35.607   2.926  16.152  0.00  0.00    +0.000 C 
BRANCH  27  28
ATOM     28  C   UNL     1      36.884   3.299  16.250  0.00  0.00    +0.000 C 
BRANCH  28  29
ATOM     29  N   UNL     1      38.095   3.667  16.342  0.00  0.00    +0.000 NA
BRANCH  29  31
ATOM     30  C   UNL     1      38.883   4.891  18.343  0.00  0.00    +0.000 C 
ATOM     31  C   UNL     1      38.447   5.035  16.865  0.00  0.00    +0.000 C 
ENDBRANCH  29  31
BRANCH  29  32
ATOM     32  C   UNL     1      38.944   3.491  15.117  0.00  0.00    +0.000 C 
ATOM     33  C   UNL     1      38.890   1.997  14.721  0.00  0.00    +0.000 C 
ENDBRANCH  29  32
ENDBRANCH  28  29
ENDBRANCH  27  28
ENDBRANCH  26  27
ENDBRANCH  20  26
ENDBRANCH   1  24
TORSDOF 7
ENDMDL
MODEL 2
REMARK VINA RESULT:      -8.0      2.564      6.927
REMARK  Name = 
REMARK  7 active torsions:
REMARK  status: ('A' for Active; 'I' for Inactive)
REMARK    1  A    between atoms: C_2  and  N_3
REMARK    2  A    between atoms: N_3  and  C_4
REMARK    3  A    between atoms: N_3  and  C_6
REMARK    4  A    between atoms: C_6  and  C_7
REMARK    5  A    between atoms: C_7  and  O_8
REMARK    6  A    between atoms: O_8  and  C_9
REMARK    7  A    between atoms: C_13  and  C_14
REMARK                            x       y       z     vdW  Elec       q    Type
REMARK                         _______ _______ _______ _____ _____    ______ ____
ROOT
ATOM      1  C   UNL     1      37.897   1.871  14.823  0.00  0.00    +0.000 A 
ATOM      2  C   UNL     1      38.330   3.028  15.297  0.00  0.00    +0.000 A 
ATOM      3  C   UNL     1      37.716   3.534  16.501  0.00  0.00    +0.000 A 
ATOM      4  C   UNL     1      36.703   2.887  17.109  0.00  0.00    +0.000 A 
ATOM      5  C   UNL     1      36.247   1.663  16.605  0.00  0.00    +0.000 A 
ATOM      6  C   UNL     1      35.317   0.933  17.279  0.00  0.00    +0.000 A 
ATOM      7  C   UNL     1      34.937  -0.377  16.928  0.00  0.00    +0.000 A 
ATOM      8  C   UNL     1      35.585  -0.955  15.803  0.00  0.00    +0.000 A 
ATOM      9  O   UNL     1      35.293  -2.188  15.483  0.00  0.00    +0.000 OA
ATOM     10  C   UNL     1      36.492  -0.101  15.195  0.00  0.00    +0.000 A 
ATOM     11  C   UNL     1      36.848   1.140  15.493  0.00  0.00    +0.000 A 
ATOM     12  C   UNL     1      38.567   4.711  16.937  0.00  0.00    +0.000 A 
ATOM     13  C   UNL     1      38.498   5.353  18.178  0.00  0.00    +0.000 A 
ATOM     14  C   UNL     1      39.471   6.263  18.389  0.00  0.00    +0.000 A 
ATOM     15  C   UNL     1      40.410   6.594  17.488  0.00  0.00    +0.000 A 
ATOM     16  O   UNL     1      41.300   7.609  17.714  0.00  0.00    +0.000 OA
ATOM     17  C   UNL     1      40.480   5.906  16.201  0.00  0.00    +0.000 A 
ATOM     18  C   UNL     1      39.484   4.936  16.043  0.00  0.00    +0.000 A 
ATOM     19  C   UNL     1      39.250   4.065  14.833  0.00  0.00    +0.000 C 
ENDROOT
BRANCH   1  24
ATOM     20  C   UNL     1      39.886  -1.101  13.550  0.00  0.00    +0.000 A 
ATOM     21  C   UNL     1      39.346  -1.027  12.265  0.00  0.00    +0.000 A 
ATOM     22  C   UNL     1      38.584  -0.158  11.751  0.00  0.00    +0.000 A 
ATOM     23  C   UNL     1      38.078   0.956  12.496  0.00  0.00    +0.000 A 
ATOM     24  C   UNL     1      38.541   1.003  13.805  0.00  0.00    +0.000 A 
ATOM     25  C   UNL     1      39.426   0.034  14.321  0.00  0.00    +0.000 A 
BRANCH  20  26
ATOM     26  O   UNL     1      40.611  -1.856  14.363  0.00  0.00    +0.000 OA
BRANCH  26  27
ATOM     27  C   UNL     1      40.462  -2.900  15.305  0.00  0.00    +0.000 C 
BRANCH  27  28
ATOM     28  C   UNL     1      39.408  -2.858  16.122  0.00  0.00    +0.000 C 
BRANCH  28  29
ATOM     29  N   UNL     1      38.409  -2.806  16.903  0.00  0.00    +0.000 NA
BRANCH  29  31
ATOM     30  C   UNL     1      37.822  -2.410  19.274  0.00  0.00    +0.000 C 
ATOM     31  C   UNL     1      38.318  -1.744  17.967  0.00  0.00    +0.000 C 
ENDBRANCH  29  31
BRANCH  29  32
ATOM     32  C   UNL     1      38.032  -4.082  17.597  0.00  0.00    +0.000 C 
ATOM     33  C   UNL     1      37.352  -4.999  16.554  0.00  0.00    +0.000 C 
ENDBRANCH  29  32
ENDBRANCH  28  29
ENDBRANCH  27  28
ENDBRANCH  26  27
ENDBRANCH  20  26
ENDBRANCH   1  24
TORSDOF 7
ENDMDL
MODEL 3
REMARK VINA RESULT:      -7.6     26.701     30.635
REMARK  Name = 
REMARK  7 active torsions:
REMARK  status: ('A' for Active; 'I' for Inactive)
REMARK    1  A    between atoms: C_2  and  N_3
REMARK    2  A    between atoms: N_3  and  C_4
REMARK    3  A    between atoms: N_3  and  C_6
REMARK    4  A    between atoms: C_6  and  C_7
REMARK    5  A    between atoms: C_7  and  O_8
REMARK    6  A    between atoms: O_8  and  C_9
REMARK    7  A    between atoms: C_13  and  C_14
REMARK                            x       y       z     vdW  Elec       q    Type
REMARK                         _______ _______ _______ _____ _____    ______ ____
ROOT
ATOM      1  C   UNL     1      26.352  15.325  36.452  0.00  0.00    +0.000 A 
ATOM      2  C   UNL     1      25.762  15.359  37.635  0.00  0.00    +0.000 A 
ATOM      3  C   UNL     1      26.586  15.612  38.792  0.00  0.00    +0.000 A 
ATOM      4  C   UNL     1      27.922  15.763  38.694  0.00  0.00    +0.000 A 
ATOM      5  C   UNL     1      28.544  15.726  37.441  0.00  0.00    +0.000 A 
ATOM      6  C   UNL     1      29.869  16.008  37.310  0.00  0.00    +0.000 A 
ATOM      7  C   UNL     1      30.525  16.158  36.073  0.00  0.00    +0.000 A 
ATOM      8  C   UNL     1      29.731  16.013  34.902  0.00  0.00    +0.000 A 
ATOM      9  O   UNL     1      30.298  16.199  33.740  0.00  0.00    +0.000 OA
ATOM     10  C   UNL     1      28.406  15.707  35.173  0.00  0.00    +0.000 A 
ATOM     11  C   UNL     1      27.775  15.538  36.326  0.00  0.00    +0.000 A 
ATOM     12  C   UNL     1      25.627  15.844  39.943  0.00  0.00    +0.000 A 
ATOM     13  C   UNL     1      25.966  16.363  41.197  0.00  0.00    +0.000 A 
ATOM     14  C   UNL     1      24.910  16.632  41.992  0.00  0.00    +0.000 A 
ATOM     15  C   UNL     1      23.632  16.384  41.667  0.00  0.00    +0.000 A 
ATOM     16  O   UNL     1      22.611  16.568  42.561  0.00  0.00    +0.000 OA
ATOM     17  C   UNL     1      23.289  15.854  40.350  0.00  0.00    +0.000 A 
ATOM     18  C   UNL     1      24.408  15.637  39.539  0.00  0.00    +0.000 A 
ATOM     19  C   UNL     1      24.419  15.075  38.138  0.00  0.00    +0.000 C 
ENDROOT
BRANCH   1  24
ATOM     20  C   UNL     1      24.699  16.981  33.464  0.00  0.00    +0.000 A 
ATOM     21  C   UNL     1      25.032  15.945  32.590  0.00  0.00    +0.000 A 
ATOM     22  C   UNL     1      25.566  14.822  32.825  0.00  0.00    +0.000 A 
ATOM     23  C   UNL     1      25.989  14.434  34.137  0.00  0.00    +0.000 A 
ATOM     24  C   UNL     1      25.716  15.385  35.112  0.00  0.00    +0.000 A 
ATOM     25  C   UNL     1      25.078  16.606  34.808  0.00  0.00    +0.000 A 
BRANCH  20  26
ATOM     26  O   UNL     1      24.225  18.218  33.523  0.00  0.00    +0.000 OA
BRANCH  26  27
ATOM     27  C   UNL     1      24.642  19.532  33.841  0.00  0.00    +0.000 C 
BRANCH  27  28
ATOM     28  C   UNL     1      24.918  19.808  35.116  0.00  0.00    +0.000 C 
BRANCH  28  29
ATOM     29  N   UNL     1      25.170  20.080  36.330  0.00  0.00    +0.000 NA
BRANCH  29  31
ATOM     30  C   UNL     1      27.472  19.177  36.240  0.00  0.00    +0.000 C 
ATOM     31  C   UNL     1      26.190  19.285  37.102  0.00  0.00    +0.000 C 
ENDBRANCH  29  31
BRANCH  29  32
ATOM     32  C   UNL     1      23.990  20.193  37.251  0.00  0.00    +0.000 C 
ATOM     33  C   UNL     1      23.631  18.767  37.728  0.00  0.00    +0.000 C 
ENDBRANCH  29  32
ENDBRANCH  28  29
ENDBRANCH  27  28
ENDBRANCH  26  27
ENDBRANCH  20  26
ENDBRANCH   1  24
TORSDOF 7
ENDMDL
MODEL 4
REMARK VINA RESULT:      -7.6      3.219      6.812
REMARK  Name = 
REMARK  7 active torsions:
REMARK  status: ('A' for Active; 'I' for Inactive)
REMARK    1  A    between atoms: C_2  and  N_3
REMARK    2  A    between atoms: N_3  and  C_4
REMARK    3  A    between atoms: N_3  and  C_6
REMARK    4  A    between atoms: C_6  and  C_7
REMARK    5  A    between atoms: C_7  and  O_8
REMARK    6  A    between atoms: O_8  and  C_9
REMARK    7  A    between atoms: C_13  and  C_14
REMARK                            x       y       z     vdW  Elec       q    Type
REMARK                         _______ _______ _______ _____ _____    ______ ____
ROOT
ATOM      1  C   UNL     1      39.129  -1.500  15.114  0.00  0.00    +0.000 A 
ATOM      2  C   UNL     1      40.371  -1.463  14.661  0.00  0.00    +0.000 A 
ATOM      3  C   UNL     1      40.882  -0.195  14.199  0.00  0.00    +0.000 A 
ATOM      4  C   UNL     1      40.118   0.914  14.179  0.00  0.00    +0.000 A 
ATOM      5  C   UNL     1      38.804   0.873  14.660  0.00  0.00    +0.000 A 
ATOM      6  C   UNL     1      38.064   2.010  14.770  0.00  0.00    +0.000 A 
ATOM      7  C   UNL     1      36.806   2.074  15.400  0.00  0.00    +0.000 A 
ATOM      8  C   UNL     1      36.303   0.866  15.956  0.00  0.00    +0.000 A 
ATOM      9  O   UNL     1      35.163   0.903  16.594  0.00  0.00    +0.000 OA
ATOM     10  C   UNL     1      37.142  -0.220  15.757  0.00  0.00    +0.000 A 
ATOM     11  C   UNL     1      38.315  -0.308  15.149  0.00  0.00    +0.000 A 
ATOM     12  C   UNL     1      42.369  -0.400  13.986  0.00  0.00    +0.000 A 
ATOM     13  C   UNL     1      43.311   0.613  13.780  0.00  0.00    +0.000 A 
ATOM     14  C   UNL     1      44.592   0.191  13.785  0.00  0.00    +0.000 A 
ATOM     15  C   UNL     1      44.970  -1.090  13.916  0.00  0.00    +0.000 A 
ATOM     16  O   UNL     1      46.278  -1.473  13.795  0.00  0.00    +0.000 OA
ATOM     17  C   UNL     1      43.977  -2.138  14.145  0.00  0.00    +0.000 A 
ATOM     18  C   UNL     1      42.666  -1.651  14.183  0.00  0.00    +0.000 A 
ATOM     19  C   UNL     1      41.404  -2.456  14.371  0.00  0.00    +0.000 C 
ENDROOT
BRANCH   1  24
ATOM     20  C   UNL     1      36.914  -4.526  15.700  0.00  0.00    +0.000 A 
ATOM     21  C   UNL     1      37.571  -4.893  16.876  0.00  0.00    +0.000 A 
ATOM     22  C   UNL     1      38.476  -4.292  17.524  0.00  0.00    +0.000 A 
ATOM     23  C   UNL     1      39.045  -3.055  17.078  0.00  0.00    +0.000 A 
ATOM     24  C   UNL     1      38.477  -2.573  15.906  0.00  0.00    +0.000 A 
ATOM     25  C   UNL     1      37.437  -3.258  15.242  0.00  0.00    +0.000 A 
BRANCH  20  26
ATOM     26  O   UNL     1      36.032  -4.933  14.797  0.00  0.00    +0.000 OA
BRANCH  26  27
ATOM     27  C   UNL     1      34.636  -5.088  14.628  0.00  0.00    +0.000 C 
BRANCH  27  28
ATOM     28  C   UNL     1      34.112  -6.295  14.843  0.00  0.00    +0.000 C 
BRANCH  28  29
ATOM     29  N   UNL     1      33.601  -7.439  15.051  0.00  0.00    +0.000 NA
BRANCH  29  31
ATOM     30  C   UNL     1      35.110  -7.992  16.933  0.00  0.00    +0.000 C 
ATOM     31  C   UNL     1      33.651  -8.067  16.418  0.00  0.00    +0.000 C 
ENDBRANCH  29  31
BRANCH  29  32
ATOM     32  C   UNL     1      34.002  -8.534  14.107  0.00  0.00    +0.000 C 
ATOM     33  C   UNL     1      33.607  -8.090  12.680  0.00  0.00    +0.000 C 
ENDBRANCH  29  32
ENDBRANCH  28  29
ENDBRANCH  27  28
ENDBRANCH  26  27
ENDBRANCH  20  26
ENDBRANCH   1  24
TORSDOF 7
ENDMDL
MODEL 5
REMARK VINA RESULT:      -7.5      2.032      3.571
REMARK  Name = 
REMARK  7 active torsions:
REMARK  status: ('A' for Active; 'I' for Inactive)
REMARK    1  A    between atoms: C_2  and  N_3
REMARK    2  A    between atoms: N_3  and  C_4
REMARK    3  A    between atoms: N_3  and  C_6
REMARK    4  A    between atoms: C_6  and  C_7
REMARK    5  A    between atoms: C_7  and  O_8
REMARK    6  A    between atoms: O_8  and  C_9
REMARK    7  A    between atoms: C_13  and  C_14
REMARK                            x       y       z     vdW  Elec       q    Type
REMARK                         _______ _______ _______ _____ _____    ______ ____
ROOT
ATOM      1  C   UNL     1      37.959   0.177  15.443  0.00  0.00    +0.000 A 
ATOM      2  C   UNL     1      39.134  -0.137  14.923  0.00  0.00    +0.000 A 
ATOM      3  C   UNL     1      39.554  -1.516  14.991  0.00  0.00    +0.000 A 
ATOM      4  C   UNL     1      38.808  -2.457  15.602  0.00  0.00    +0.000 A 
ATOM      5  C   UNL     1      37.565  -2.122  16.151  0.00  0.00    +0.000 A 
ATOM      6  C   UNL     1      36.741  -3.082  16.654  0.00  0.00    +0.000 A 
ATOM      7  C   UNL     1      35.415  -2.847  17.064  0.00  0.00    +0.000 A 
ATOM      8  C   UNL     1      34.924  -1.520  16.926  0.00  0.00    +0.000 A 
ATOM      9  O   UNL     1      33.681  -1.280  17.248  0.00  0.00    +0.000 OA
ATOM     10  C   UNL     1      35.867  -0.637  16.424  0.00  0.00    +0.000 A 
ATOM     11  C   UNL     1      37.125  -0.830  16.054  0.00  0.00    +0.000 A 
ATOM     12  C   UNL     1      40.785  -1.619  14.111  0.00  0.00    +0.000 A 
ATOM     13  C   UNL     1      41.385  -2.808  13.682  0.00  0.00    +0.000 A 
ATOM     14  C   UNL     1      42.366  -2.639  12.772  0.00  0.00    +0.000 A 
ATOM     15  C   UNL     1      42.799  -1.446  12.334  0.00  0.00    +0.000 A 
ATOM     16  O   UNL     1      43.878  -1.332  11.499  0.00  0.00    +0.000 OA
ATOM     17  C   UNL     1      42.156  -0.212  12.780  0.00  0.00    +0.000 A 
ATOM     18  C   UNL     1      41.111  -0.435  13.683  0.00  0.00    +0.000 A 
ATOM     19  C   UNL     1      40.257   0.611  14.359  0.00  0.00    +0.000 C 
ENDROOT
BRANCH   1  24
ATOM     20  C   UNL     1      37.059   3.830  15.947  0.00  0.00    +0.000 A 
ATOM     21  C   UNL     1      36.355   3.916  14.745  0.00  0.00    +0.000 A 
ATOM     22  C   UNL     1      36.049   3.012  13.914  0.00  0.00    +0.000 A 
ATOM     23  C   UNL     1      36.460   1.650  14.078  0.00  0.00    +0.000 A 
ATOM     24  C   UNL     1      37.177   1.423  15.245  0.00  0.00    +0.000 A 
ATOM     25  C   UNL     1      37.456   2.456  16.164  0.00  0.00    +0.000 A 
BRANCH  20  26
ATOM     26  O   UNL     1      37.566   4.544  16.942  0.00  0.00    +0.000 OA
BRANCH  26  27
ATOM     27  C   UNL     1      38.734   4.635  17.735  0.00  0.00    +0.000 C 
BRANCH  27  28
ATOM     28  C   UNL     1      38.876   5.706  18.517  0.00  0.00    +0.000 C 
BRANCH  28  29
ATOM     29  N   UNL     1      39.004   6.733  19.253  0.00  0.00    +0.000 NA
BRANCH  29  31
ATOM     30  C   UNL     1      37.997   8.656  20.440  0.00  0.00    +0.000 C 
ATOM     31  C   UNL     1      38.094   7.921  19.082  0.00  0.00    +0.000 C 
ENDBRANCH  29  31
BRANCH  29  32
ATOM     32  C   UNL     1      40.383   7.314  19.360  0.00  0.00    +0.000 C 
ATOM     33  C   UNL     1      41.230   6.353  20.225  0.00  0.00    +0.000 C 
ENDBRANCH  29  32
ENDBRANCH  28  29
ENDBRANCH  27  28
ENDBRANCH  26  27
ENDBRANCH  20  26
ENDBRANCH   1  24
TORSDOF 7
ENDMDL
MODEL 6
REMARK VINA RESULT:      -7.3     22.592     26.416
REMARK  Name = 
REMARK  7 active torsions:
REMARK  status: ('A' for Active; 'I' for Inactive)
REMARK    1  A    between atoms: C_2  and  N_3
REMARK    2  A    between atoms: N_3  and  C_4
REMARK    3  A    between atoms: N_3  and  C_6
REMARK    4  A    between atoms: C_6  and  C_7
REMARK    5  A    between atoms: C_7  and  O_8
REMARK    6  A    between atoms: O_8  and  C_9
REMARK    7  A    between atoms: C_13  and  C_14
REMARK                            x       y       z     vdW  Elec       q    Type
REMARK                         _______ _______ _______ _____ _____    ______ ____
ROOT
ATOM      1  C   UNL     1      12.388  -0.716  26.605  0.00  0.00    +0.000 A 
ATOM      2  C   UNL     1      11.883  -1.769  25.983  0.00  0.00    +0.000 A 
ATOM      3  C   UNL     1      10.664  -1.587  25.234  0.00  0.00    +0.000 A 
ATOM      4  C   UNL     1      10.022  -0.403  25.197  0.00  0.00    +0.000 A 
ATOM      5  C   UNL     1      10.559   0.709  25.855  0.00  0.00    +0.000 A 
ATOM      6  C   UNL     1       9.996   1.941  25.719  0.00  0.00    +0.000 A 
ATOM      7  C   UNL     1      10.572   3.130  26.207  0.00  0.00    +0.000 A 
ATOM      8  C   UNL     1      11.824   3.013  26.870  0.00  0.00    +0.000 A 
ATOM      9  O   UNL     1      12.410   4.103  27.288  0.00  0.00    +0.000 OA
ATOM     10  C   UNL     1      12.276   1.705  26.960  0.00  0.00    +0.000 A 
ATOM     11  C   UNL     1      11.740   0.572  26.530  0.00  0.00    +0.000 A 
ATOM     12  C   UNL     1      10.469  -2.865  24.441  0.00  0.00    +0.000 A 
ATOM     13  C   UNL     1       9.559  -3.046  23.395  0.00  0.00    +0.000 A 
ATOM     14  C   UNL     1       9.692  -4.217  22.738  0.00  0.00    +0.000 A 
ATOM     15  C   UNL     1      10.572  -5.177  23.066  0.00  0.00    +0.000 A 
ATOM     16  O   UNL     1      10.580  -6.393  22.438  0.00  0.00    +0.000 OA
ATOM     17  C   UNL     1      11.526  -4.970  24.154  0.00  0.00    +0.000 A 
ATOM     18  C   UNL     1      11.387  -3.724  24.775  0.00  0.00    +0.000 A 
ATOM     19  C   UNL     1      12.186  -3.199  25.942  0.00  0.00    +0.000 C 
ENDROOT
BRANCH   1  24
ATOM     20  C   UNL     1      16.164  -0.335  26.528  0.00  0.00    +0.000 A 
ATOM     21  C   UNL     1      16.223   0.238  27.800  0.00  0.00    +0.000 A 
ATOM     22  C   UNL     1      15.312   0.399  28.662  0.00  0.00    +0.000 A 
ATOM     23  C   UNL     1      13.951   0.027  28.419  0.00  0.00    +0.000 A 
ATOM     24  C   UNL     1      13.750  -0.559  27.177  0.00  0.00    +0.000 A 
ATOM     25  C   UNL     1      14.807  -0.759  26.264  0.00  0.00    +0.000 A 
BRANCH  20  26
ATOM     26  O   UNL     1      16.869  -0.579  25.432  0.00  0.00    +0.000 OA
BRANCH  26  27
ATOM     27  C   UNL     1      17.972  -1.348  24.994  0.00  0.00    +0.000 C 
BRANCH  27  28
ATOM     28  C   UNL     1      18.871  -0.758  24.205  0.00  0.00    +0.000 C 
BRANCH  28  29
ATOM     29  N   UNL     1      19.720  -0.200  23.444  0.00  0.00    +0.000 NA
BRANCH  29  31
ATOM     30  C   UNL     1      20.231  -2.098  21.941  0.00  0.00    +0.000 C 
ATOM     31  C   UNL     1      20.846  -0.993  22.834  0.00  0.00    +0.000 C 
ENDBRANCH  29  31
BRANCH  29  32
ATOM     32  C   UNL     1      20.365   1.052  23.963  0.00  0.00    +0.000 C 
ATOM     33  C   UNL     1      21.595   0.632  24.801  0.00  0.00    +0.000 C 
ENDBRANCH  29  32
ENDBRANCH  28  29
ENDBRANCH  27  28
ENDBRANCH  26  27
ENDBRANCH  20  26
ENDBRANCH   1  24
TORSDOF 7
ENDMDL
MODEL 7
REMARK VINA RESULT:      -7.3      2.697      3.767
REMARK  Name = 
REMARK  7 active torsions:
REMARK  status: ('A' for Active; 'I' for Inactive)
REMARK    1  A    between atoms: C_2  and  N_3
REMARK    2  A    between atoms: N_3  and  C_4
REMARK    3  A    between atoms: N_3  and  C_6
REMARK    4  A    between atoms: C_6  and  C_7
REMARK    5  A    between atoms: C_7  and  O_8
REMARK    6  A    between atoms: O_8  and  C_9
REMARK    7  A    between atoms: C_13  and  C_14
REMARK                            x       y       z     vdW  Elec       q    Type
REMARK                         _______ _______ _______ _____ _____    ______ ____
ROOT
ATOM      1  C   UNL     1      38.363  -0.141  14.708  0.00  0.00    +0.000 A 
ATOM      2  C   UNL     1      38.970  -0.328  13.548  0.00  0.00    +0.000 A 
ATOM      3  C   UNL     1      39.729  -1.543  13.374  0.00  0.00    +0.000 A 
ATOM      4  C   UNL     1      39.863  -2.446  14.365  0.00  0.00    +0.000 A 
ATOM      5  C   UNL     1      39.219  -2.245  15.591  0.00  0.00    +0.000 A 
ATOM      6  C   UNL     1      39.235  -3.207  16.555  0.00  0.00    +0.000 A 
ATOM      7  C   UNL     1      38.473  -3.151  17.738  0.00  0.00    +0.000 A 
ATOM      8  C   UNL     1      37.635  -2.015  17.910  0.00  0.00    +0.000 A 
ATOM      9  O   UNL     1      36.876  -1.958  18.972  0.00  0.00    +0.000 OA
ATOM     10  C   UNL     1      37.728  -1.103  16.870  0.00  0.00    +0.000 A 
ATOM     11  C   UNL     1      38.454  -1.124  15.762  0.00  0.00    +0.000 A 
ATOM     12  C   UNL     1      40.087  -1.601  11.902  0.00  0.00    +0.000 A 
ATOM     13  C   UNL     1      40.604  -2.714  11.231  0.00  0.00    +0.000 A 
ATOM     14  C   UNL     1      40.682  -2.570   9.892  0.00  0.00    +0.000 A 
ATOM     15  C   UNL     1      40.356  -1.449   9.228  0.00  0.00    +0.000 A 
ATOM     16  O   UNL     1      40.569  -1.320   7.882  0.00  0.00    +0.000 OA
ATOM     17  C   UNL     1      39.806  -0.298   9.939  0.00  0.00    +0.000 A 
ATOM     18  C   UNL     1      39.694  -0.508  11.318  0.00  0.00    +0.000 A 
ATOM     19  C   UNL     1      39.194   0.476  12.348  0.00  0.00    +0.000 C 
ENDROOT
BRANCH   1  24
ATOM     20  C   UNL     1      36.948   3.140  15.989  0.00  0.00    +0.000 A 
ATOM     21  C   UNL     1      35.764   3.019  15.258  0.00  0.00    +0.000 A 
ATOM     22  C   UNL     1      35.334   2.057  14.558  0.00  0.00    +0.000 A 
ATOM     23  C   UNL     1      36.090   0.858  14.357  0.00  0.00    +0.000 A 
ATOM     24  C   UNL     1      37.302   0.846  15.035  0.00  0.00    +0.000 A 
ATOM     25  C   UNL     1      37.720   1.927  15.840  0.00  0.00    +0.000 A 
BRANCH  20  26
ATOM     26  O   UNL     1      37.672   3.976  16.720  0.00  0.00    +0.000 OA
BRANCH  26  27
ATOM     27  C   UNL     1      38.017   4.228  18.068  0.00  0.00    +0.000 C 
BRANCH  27  28
ATOM     28  C   UNL     1      39.073   5.007  18.307  0.00  0.00    +0.000 C 
BRANCH  28  29
ATOM     29  N   UNL     1      40.071   5.755  18.544  0.00  0.00    +0.000 NA
BRANCH  29  31
ATOM     30  C   UNL     1      39.074   7.532  19.949  0.00  0.00    +0.000 C 
ATOM     31  C   UNL     1      40.200   6.472  19.862  0.00  0.00    +0.000 C 
ENDBRANCH  29  31
BRANCH  29  32
ATOM     32  C   UNL     1      40.395   6.790  17.507  0.00  0.00    +0.000 C 
ATOM     33  C   UNL     1      41.826   6.510  16.997  0.00  0.00    +0.000 C 
ENDBRANCH  29  32
ENDBRANCH  28  29
ENDBRANCH  27  28
ENDBRANCH  26  27
ENDBRANCH  20  26
ENDBRANCH   1  24
TORSDOF 7
ENDMDL
MODEL 8
REMARK VINA RESULT:      -7.3      3.391      6.900
REMARK  Name = 
REMARK  7 active torsions:
REMARK  status: ('A' for Active; 'I' for Inactive)
REMARK    1  A    between atoms: C_2  and  N_3
REMARK    2  A    between atoms: N_3  and  C_4
REMARK    3  A    between atoms: N_3  and  C_6
REMARK    4  A    between atoms: C_6  and  C_7
REMARK    5  A    between atoms: C_7  and  O_8
REMARK    6  A    between atoms: O_8  and  C_9
REMARK    7  A    between atoms: C_13  and  C_14
REMARK                            x       y       z     vdW  Elec       q    Type
REMARK                         _______ _______ _______ _____ _____    ______ ____
ROOT
ATOM      1  C   UNL     1      37.505  -1.672  14.205  0.00  0.00    +0.000 A 
ATOM      2  C   UNL     1      38.254  -1.692  13.114  0.00  0.00    +0.000 A 
ATOM      3  C   UNL     1      38.238  -0.524  12.266  0.00  0.00    +0.000 A 
ATOM      4  C   UNL     1      37.457   0.540  12.535  0.00  0.00    +0.000 A 
ATOM      5  C   UNL     1      36.666   0.558  13.690  0.00  0.00    +0.000 A 
ATOM      6  C   UNL     1      35.974   1.675  14.046  0.00  0.00    +0.000 A 
ATOM      7  C   UNL     1      35.299   1.826  15.272  0.00  0.00    +0.000 A 
ATOM      8  C   UNL     1      35.367   0.737  16.184  0.00  0.00    +0.000 A 
ATOM      9  O   UNL     1      34.795   0.867  17.351  0.00  0.00    +0.000 OA
ATOM     10  C   UNL     1      36.082  -0.344  15.692  0.00  0.00    +0.000 A 
ATOM     11  C   UNL     1      36.704  -0.518  14.535  0.00  0.00    +0.000 A 
ATOM     12  C   UNL     1      39.355  -0.727  11.260  0.00  0.00    +0.000 A 
ATOM     13  C   UNL     1      39.868   0.251  10.402  0.00  0.00    +0.000 A 
ATOM     14  C   UNL     1      40.969  -0.128   9.722  0.00  0.00    +0.000 A 
ATOM     15  C   UNL     1      41.523  -1.349   9.791  0.00  0.00    +0.000 A 
ATOM     16  O   UNL     1      42.570  -1.713   8.988  0.00  0.00    +0.000 OA
ATOM     17  C   UNL     1      40.985  -2.358  10.701  0.00  0.00    +0.000 A 
ATOM     18  C   UNL     1      39.875  -1.908  11.424  0.00  0.00    +0.000 A 
ATOM     19  C   UNL     1      39.063  -2.694  12.424  0.00  0.00    +0.000 C 
ENDROOT
BRANCH   1  24
ATOM     20  C   UNL     1      36.671  -4.766  16.239  0.00  0.00    +0.000 A 
ATOM     21  C   UNL     1      37.830  -4.680  17.013  0.00  0.00    +0.000 A 
ATOM     22  C   UNL     1      38.715  -3.778  17.055  0.00  0.00    +0.000 A 
ATOM     23  C   UNL     1      38.680  -2.628  16.202  0.00  0.00    +0.000 A 
ATOM     24  C   UNL     1      37.568  -2.588  15.371  0.00  0.00    +0.000 A 
ATOM     25  C   UNL     1      36.582  -3.598  15.391  0.00  0.00    +0.000 A 
BRANCH  20  26
ATOM     26  O   UNL     1      35.646  -5.549  15.933  0.00  0.00    +0.000 OA
BRANCH  26  27
ATOM     27  C   UNL     1      34.506  -5.577  15.095  0.00  0.00    +0.000 C 
BRANCH  27  28
ATOM     28  C   UNL     1      34.123  -6.755  14.602  0.00  0.00    +0.000 C 
BRANCH  28  29
ATOM     29  N   UNL     1      33.753  -7.879  14.143  0.00  0.00    +0.000 NA
BRANCH  29  31
ATOM     30  C   UNL     1      33.007  -9.297  16.030  0.00  0.00    +0.000 C 
ATOM     31  C   UNL     1      34.049  -9.151  14.894  0.00  0.00    +0.000 C 
ENDBRANCH  29  31
BRANCH  29  32
ATOM     32  C   UNL     1      34.120  -8.177  12.719  0.00  0.00    +0.000 C 
ATOM     33  C   UNL     1      32.883  -8.809  12.040  0.00  0.00    +0.000 C 
ENDBRANCH  29  32
ENDBRANCH  28  29
ENDBRANCH  27  28
ENDBRANCH  26  27
ENDBRANCH  20  26
ENDBRANCH   1  24
TORSDOF 7
ENDMDL
MODEL 9
REMARK VINA RESULT:      -7.3      2.920      8.049
REMARK  Name = 
REMARK  7 active torsions:
REMARK  status: ('A' for Active; 'I' for Inactive)
REMARK    1  A    between atoms: C_2  and  N_3
REMARK    2  A    between atoms: N_3  and  C_4
REMARK    3  A    between atoms: N_3  and  C_6
REMARK    4  A    between atoms: C_6  and  C_7
REMARK    5  A    between atoms: C_7  and  O_8
REMARK    6  A    between atoms: O_8  and  C_9
REMARK    7  A    between atoms: C_13  and  C_14
REMARK                            x       y       z     vdW  Elec       q    Type
REMARK                         _______ _______ _______ _____ _____    ______ ____
ROOT
ATOM      1  C   UNL     1      38.211   3.838  15.501  0.00  0.00    +0.000 A 
ATOM      2  C   UNL     1      38.748   4.595  16.444  0.00  0.00    +0.000 A 
ATOM      3  C   UNL     1      39.902   5.388  16.094  0.00  0.00    +0.000 A 
ATOM      4  C   UNL     1      40.456   5.335  14.867  0.00  0.00    +0.000 A 
ATOM      5  C   UNL     1      39.885   4.534  13.872  0.00  0.00    +0.000 A 
ATOM      6  C   UNL     1      40.351   4.570  12.593  0.00  0.00    +0.000 A 
ATOM      7  C   UNL     1      39.725   3.927  11.508  0.00  0.00    +0.000 A 
ATOM      8  C   UNL     1      38.529   3.211  11.786  0.00  0.00    +0.000 A 
ATOM      9  O   UNL     1      37.895   2.647  10.792  0.00  0.00    +0.000 OA
ATOM     10  C   UNL     1      38.176   3.235  13.127  0.00  0.00    +0.000 A 
ATOM     11  C   UNL     1      38.761   3.812  14.167  0.00  0.00    +0.000 A 
ATOM     12  C   UNL     1      40.135   6.321  17.267  0.00  0.00    +0.000 A 
ATOM     13  C   UNL     1      40.987   7.430  17.270  0.00  0.00    +0.000 A 
ATOM     14  C   UNL     1      40.895   8.199  18.375  0.00  0.00    +0.000 A 
ATOM     15  C   UNL     1      40.107   7.925  19.428  0.00  0.00    +0.000 A 
ATOM     16  O   UNL     1      40.144   8.678  20.571  0.00  0.00    +0.000 OA
ATOM     17  C   UNL     1      39.212   6.771  19.406  0.00  0.00    +0.000 A 
ATOM     18  C   UNL     1      39.303   6.030  18.222  0.00  0.00    +0.000 A 
ATOM     19  C   UNL     1      38.545   4.770  17.881  0.00  0.00    +0.000 C 
ENDROOT
BRANCH   1  24
ATOM     20  C   UNL     1      35.531   1.437  16.711  0.00  0.00    +0.000 A 
ATOM     21  C   UNL     1      34.489   2.175  16.147  0.00  0.00    +0.000 A 
ATOM     22  C   UNL     1      34.525   3.189  15.392  0.00  0.00    +0.000 A 
ATOM     23  C   UNL     1      35.754   3.816  15.009  0.00  0.00    +0.000 A 
ATOM     24  C   UNL     1      36.881   3.178  15.508  0.00  0.00    +0.000 A 
ATOM     25  C   UNL     1      36.792   2.021  16.311  0.00  0.00    +0.000 A 
BRANCH  20  26
ATOM     26  O   UNL     1      35.809   0.438  17.536  0.00  0.00    +0.000 OA
BRANCH  26  27
ATOM     27  C   UNL     1      35.988  -0.965  17.529  0.00  0.00    +0.000 C 
BRANCH  27  28
ATOM     28  C   UNL     1      36.975  -1.465  16.784  0.00  0.00    +0.000 C 
BRANCH  28  29
ATOM     29  N   UNL     1      37.907  -1.939  16.064  0.00  0.00    +0.000 NA
BRANCH  29  31
ATOM     30  C   UNL     1      40.067  -3.039  15.565  0.00  0.00    +0.000 C 
ATOM     31  C   UNL     1      39.075  -2.655  16.690  0.00  0.00    +0.000 C 
ENDBRANCH  29  31
BRANCH  29  32
ATOM     32  C   UNL     1      38.517  -1.008  15.058  0.00  0.00    +0.000 C 
ATOM     33  C   UNL     1      37.468  -0.762  13.950  0.00  0.00    +0.000 C 
ENDBRANCH  29  32
ENDBRANCH  28  29
ENDBRANCH  27  28
ENDBRANCH  26  27
ENDBRANCH  20  26
ENDBRANCH   1  24
TORSDOF 7
ENDMDL
MODEL 10
REMARK VINA RESULT:      -7.2      2.528      5.958
REMARK  Name = 
REMARK  7 active torsions:
REMARK  status: ('A' for Active; 'I' for Inactive)
REMARK    1  A    between atoms: C_2  and  N_3
REMARK    2  A    between atoms: N_3  and  C_4
REMARK    3  A    between atoms: N_3  and  C_6
REMARK    4  A    between atoms: C_6  and  C_7
REMARK    5  A    between atoms: C_7  and  O_8
REMARK    6  A    between atoms: O_8  and  C_9
REMARK    7  A    between atoms: C_13  and  C_14
REMARK                            x       y       z     vdW  Elec       q    Type
REMARK                         _______ _______ _______ _____ _____    ______ ____
ROOT
ATOM      1  C   UNL     1      37.873   1.428  14.157  0.00  0.00    +0.000 A 
ATOM      2  C   UNL     1      38.476   0.596  13.323  0.00  0.00    +0.000 A 
ATOM      3  C   UNL     1      39.738   1.007  12.756  0.00  0.00    +0.000 A 
ATOM      4  C   UNL     1      40.276   2.214  13.020  0.00  0.00    +0.000 A 
ATOM      5  C   UNL     1      39.637   3.092  13.903  0.00  0.00    +0.000 A 
ATOM      6  C   UNL     1      40.230   4.257  14.283  0.00  0.00    +0.000 A 
ATOM      7  C   UNL     1      39.731   5.104  15.291  0.00  0.00    +0.000 A 
ATOM      8  C   UNL     1      38.539   4.691  15.946  0.00  0.00    +0.000 A 
ATOM      9  O   UNL     1      38.079   5.428  16.922  0.00  0.00    +0.000 OA
ATOM     10  C   UNL     1      38.026   3.502  15.452  0.00  0.00    +0.000 A 
ATOM     11  C   UNL     1      38.464   2.702  14.491  0.00  0.00    +0.000 A 
ATOM     12  C   UNL     1      40.300  -0.218  12.063  0.00  0.00    +0.000 A 
ATOM     13  C   UNL     1      41.609  -0.359  11.589  0.00  0.00    +0.000 A 
ATOM     14  C   UNL     1      41.915  -1.602  11.162  0.00  0.00    +0.000 A 
ATOM     15  C   UNL     1      41.049  -2.628  11.125  0.00  0.00    +0.000 A 
ATOM     16  O   UNL     1      41.383  -3.834  10.571  0.00  0.00    +0.000 OA
ATOM     17  C   UNL     1      39.689  -2.471  11.635  0.00  0.00    +0.000 A 
ATOM     18  C   UNL     1      39.429  -1.182  12.115  0.00  0.00    +0.000 A 
ATOM     19  C   UNL     1      38.127  -0.671  12.682  0.00  0.00    +0.000 C 
ENDROOT
BRANCH   1  24
ATOM     20  C   UNL     1      36.256   0.274  17.391  0.00  0.00    +0.000 A 
ATOM     21  C   UNL     1      35.081   0.995  17.166  0.00  0.00    +0.000 A 
ATOM     22  C   UNL     1      34.712   1.653  16.151  0.00  0.00    +0.000 A 
ATOM     23  C   UNL     1      35.542   1.809  14.995  0.00  0.00    +0.000 A 
ATOM     24  C   UNL     1      36.753   1.136  15.087  0.00  0.00    +0.000 A 
ATOM     25  C   UNL     1      37.103   0.377  16.223  0.00  0.00    +0.000 A 
BRANCH  20  26
ATOM     26  O   UNL     1      36.927  -0.420  18.300  0.00  0.00    +0.000 OA
BRANCH  26  27
ATOM     27  C   UNL     1      37.122  -1.753  18.729  0.00  0.00    +0.000 C 
BRANCH  27  28
ATOM     28  C   UNL     1      37.865  -2.554  17.964  0.00  0.00    +0.000 C 
BRANCH  28  29
ATOM     29  N   UNL     1      38.564  -3.313  17.225  0.00  0.00    +0.000 NA
BRANCH  29  31
ATOM     30  C   UNL     1      40.067  -2.453  15.457  0.00  0.00    +0.000 C 
ATOM     31  C   UNL     1      38.671  -3.060  15.744  0.00  0.00    +0.000 C 
ENDBRANCH  29  31
BRANCH  29  32
ATOM     32  C   UNL     1      38.310  -4.787  17.348  0.00  0.00    +0.000 C 
ATOM     33  C   UNL     1      37.045  -5.115  16.522  0.00  0.00    +0.000 C 
ENDBRANCH  29  32
ENDBRANCH  28  29
ENDBRANCH  27  28
ENDBRANCH  26  27
ENDBRANCH  20  26
ENDBRANCH   1  24
TORSDOF 7
ENDMDL
