MODEL 1
REMARK VINA RESULT:      -5.8      0.000      0.000
REMARK  Name = 
REMARK  3 active torsions:
REMARK  status: ('A' for Active; 'I' for Inactive)
REMARK    1  A    between atoms: C_2  and  C_3
REMARK    2  A    between atoms: C_3  and  N_4
REMARK    3  A    between atoms: C_8  and  C_9
REMARK                            x       y       z     vdW  Elec       q    Type
REMARK                         _______ _______ _______ _____ _____    ______ ____
ROOT
ATOM      1  N   UNL     1      32.457  22.050  31.016  0.00  0.00    +0.000 NA
ATOM      2  C   UNL     1      31.499  22.276  30.033  0.00  0.00    +0.000 C 
ATOM      3  N   UNL     1      31.831  22.139  28.807  0.00  0.00    +0.000 NA
ATOM      4  N   UNL     1      31.007  22.325  27.732  0.00  0.00    +0.000 NA
ATOM      5  C   UNL     1      29.645  22.697  27.746  0.00  0.00    +0.000 C 
ATOM      6  C   UNL     1      28.981  22.919  28.866  0.00  0.00    +0.000 C 
ATOM      7  S   UNL     1      29.806  22.753  30.428  0.00  0.00    +0.000 S 
ENDROOT
BRANCH   5   8
ATOM      8  C   UNL     1      28.911  22.849  26.468  0.00  0.00    +0.000 A 
ATOM      9  C   UNL     1      27.562  22.611  26.440  0.00  0.00    +0.000 A 
ATOM     10  C   UNL     1      26.824  22.741  25.255  0.00  0.00    +0.000 A 
ATOM     11  C   UNL     1      27.508  23.123  24.101  0.00  0.00    +0.000 A 
ATOM     12  C   UNL     1      28.858  23.363  24.123  0.00  0.00    +0.000 A 
ATOM     13  C   UNL     1      29.543  23.224  25.304  0.00  0.00    +0.000 A 
ATOM     14  O   UNL     1      29.525  23.739  22.981  0.00  0.00    +0.000 OA
ATOM     15  C   UNL     1      28.865  23.941  21.737  0.00  0.00    +0.000 C 
ATOM     16  C   UNL     1      27.390  24.204  21.968  0.00  0.00    +0.000 C 
ATOM     17  O   UNL     1      26.834  23.271  22.889  0.00  0.00    +0.000 OA
ENDBRANCH   5   8
BRANCH   1  18
ATOM     18  C   UNL     1      33.642  21.272  30.710  0.00  0.00    +0.000 C 
BRANCH  18  20
ATOM     19  C   UNL     1      35.020  20.455  32.606  0.00  0.00    +0.000 C 
ATOM     20  C   UNL     1      34.621  21.480  31.825  0.00  0.00    +0.000 C 
ENDBRANCH  18  20
ENDBRANCH   1  18
TORSDOF 3
ENDMDL
MODEL 2
REMARK VINA RESULT:      -5.7     17.816     21.102
REMARK  Name = 
REMARK  3 active torsions:
REMARK  status: ('A' for Active; 'I' for Inactive)
REMARK    1  A    between atoms: C_2  and  C_3
REMARK    2  A    between atoms: C_3  and  N_4
REMARK    3  A    between atoms: C_8  and  C_9
REMARK                            x       y       z     vdW  Elec       q    Type
REMARK                         _______ _______ _______ _____ _____    ______ ____
ROOT
ATOM      1  N   UNL     1      35.424   9.214  37.015  0.00  0.00    +0.000 NA
ATOM      2  C   UNL     1      35.288   7.889  36.614  0.00  0.00    +0.000 C 
ATOM      3  N   UNL     1      34.186   7.518  36.083  0.00  0.00    +0.000 NA
ATOM      4  N   UNL     1      33.901   6.256  35.640  0.00  0.00    +0.000 NA
ATOM      5  C   UNL     1      34.741   5.122  35.671  0.00  0.00    +0.000 C 
ATOM      6  C   UNL     1      35.967   5.160  36.163  0.00  0.00    +0.000 C 
ATOM      7  S   UNL     1      36.609   6.679  36.815  0.00  0.00    +0.000 S 
ENDROOT
BRANCH   5   8
ATOM      8  C   UNL     1      34.251   3.828  35.138  0.00  0.00    +0.000 A 
ATOM      9  C   UNL     1      33.942   3.729  33.808  0.00  0.00    +0.000 A 
ATOM     10  C   UNL     1      33.475   2.528  33.257  0.00  0.00    +0.000 A 
ATOM     11  C   UNL     1      33.334   1.432  34.108  0.00  0.00    +0.000 A 
ATOM     12  C   UNL     1      33.643   1.526  35.441  0.00  0.00    +0.000 A 
ATOM     13  C   UNL     1      34.097   2.721  35.941  0.00  0.00    +0.000 A 
ATOM     14  O   UNL     1      33.501   0.442  36.274  0.00  0.00    +0.000 OA
ATOM     15  C   UNL     1      33.076  -0.834  35.810  0.00  0.00    +0.000 C 
ATOM     16  C   UNL     1      33.321  -0.953  34.319  0.00  0.00    +0.000 C 
ATOM     17  O   UNL     1      32.875   0.208  33.625  0.00  0.00    +0.000 OA
ENDBRANCH   5   8
BRANCH   1  18
ATOM     18  C   UNL     1      34.550  10.233  36.467  0.00  0.00    +0.000 C 
BRANCH  18  20
ATOM     19  C   UNL     1      36.181  10.629  34.639  0.00  0.00    +0.000 C 
ATOM     20  C   UNL     1      35.384  11.130  35.605  0.00  0.00    +0.000 C 
ENDBRANCH  18  20
ENDBRANCH   1  18
TORSDOF 3
ENDMDL
MODEL 3
REMARK VINA RESULT:      -5.7      1.864      2.086
REMARK  Name = 
REMARK  3 active torsions:
REMARK  status: ('A' for Active; 'I' for Inactive)
REMARK    1  A    between atoms: C_2  and  C_3
REMARK    2  A    between atoms: C_3  and  N_4
REMARK    3  A    between atoms: C_8  and  C_9
REMARK                            x       y       z     vdW  Elec       q    Type
REMARK                         _______ _______ _______ _____ _____    ______ ____
ROOT
ATOM      1  N   UNL     1      31.473  22.506  31.717  0.00  0.00    +0.000 NA
ATOM      2  C   UNL     1      31.006  22.509  30.407  0.00  0.00    +0.000 C 
ATOM      3  N   UNL     1      29.831  22.953  30.173  0.00  0.00    +0.000 NA
ATOM      4  N   UNL     1      29.234  23.021  28.945  0.00  0.00    +0.000 NA
ATOM      5  C   UNL     1      29.774  22.624  27.702  0.00  0.00    +0.000 C 
ATOM      6  C   UNL     1      30.987  22.115  27.586  0.00  0.00    +0.000 C 
ATOM      7  S   UNL     1      31.999  21.908  29.027  0.00  0.00    +0.000 S 
ENDROOT
BRANCH   5   8
ATOM      8  C   UNL     1      28.968  22.777  26.468  0.00  0.00    +0.000 A 
ATOM      9  C   UNL     1      27.615  22.568  26.524  0.00  0.00    +0.000 A 
ATOM     10  C   UNL     1      26.810  22.699  25.384  0.00  0.00    +0.000 A 
ATOM     11  C   UNL     1      27.431  23.051  24.186  0.00  0.00    +0.000 A 
ATOM     12  C   UNL     1      28.785  23.262  24.124  0.00  0.00    +0.000 A 
ATOM     13  C   UNL     1      29.537  23.123  25.264  0.00  0.00    +0.000 A 
ATOM     14  O   UNL     1      29.390  23.608  22.939  0.00  0.00    +0.000 OA
ATOM     15  C   UNL     1      28.661  23.809  21.734  0.00  0.00    +0.000 C 
ATOM     16  C   UNL     1      27.208  24.107  22.048  0.00  0.00    +0.000 C 
ATOM     17  O   UNL     1      26.689  23.198  23.015  0.00  0.00    +0.000 OA
ENDBRANCH   5   8
BRANCH   1  18
ATOM     18  C   UNL     1      30.855  23.364  32.710  0.00  0.00    +0.000 C 
BRANCH  18  20
ATOM     19  C   UNL     1      30.650  21.182  33.874  0.00  0.00    +0.000 C 
ATOM     20  C   UNL     1      30.577  22.528  33.922  0.00  0.00    +0.000 C 
ENDBRANCH  18  20
ENDBRANCH   1  18
TORSDOF 3
ENDMDL
MODEL 4
REMARK VINA RESULT:      -5.6      2.010      2.471
REMARK  Name = 
REMARK  3 active torsions:
REMARK  status: ('A' for Active; 'I' for Inactive)
REMARK    1  A    between atoms: C_2  and  C_3
REMARK    2  A    between atoms: C_3  and  N_4
REMARK    3  A    between atoms: C_8  and  C_9
REMARK                            x       y       z     vdW  Elec       q    Type
REMARK                         _______ _______ _______ _____ _____    ______ ____
ROOT
ATOM      1  N   UNL     1      30.126  22.102  32.336  0.00  0.00    +0.000 NA
ATOM      2  C   UNL     1      29.845  22.356  30.998  0.00  0.00    +0.000 C 
ATOM      3  N   UNL     1      30.814  22.438  30.170  0.00  0.00    +0.000 NA
ATOM      4  N   UNL     1      30.700  22.682  28.829  0.00  0.00    +0.000 NA
ATOM      5  C   UNL     1      29.515  22.891  28.090  0.00  0.00    +0.000 C 
ATOM      6  C   UNL     1      28.318  22.872  28.649  0.00  0.00    +0.000 C 
ATOM      7  S   UNL     1      28.161  22.576  30.390  0.00  0.00    +0.000 S 
ENDROOT
BRANCH   5   8
ATOM      8  C   UNL     1      29.592  23.143  26.632  0.00  0.00    +0.000 A 
ATOM      9  C   UNL     1      30.652  22.640  25.923  0.00  0.00    +0.000 A 
ATOM     10  C   UNL     1      30.770  22.852  24.543  0.00  0.00    +0.000 A 
ATOM     11  C   UNL     1      29.771  23.592  23.910  0.00  0.00    +0.000 A 
ATOM     12  C   UNL     1      28.708  24.096  24.614  0.00  0.00    +0.000 A 
ATOM     13  C   UNL     1      28.631  23.866  25.965  0.00  0.00    +0.000 A 
ATOM     14  O   UNL     1      27.728  24.825  23.983  0.00  0.00    +0.000 OA
ATOM     15  C   UNL     1      27.729  25.061  22.580  0.00  0.00    +0.000 C 
ATOM     16  C   UNL     1      28.579  24.021  21.878  0.00  0.00    +0.000 C 
ATOM     17  O   UNL     1      29.827  23.839  22.539  0.00  0.00    +0.000 OA
ENDBRANCH   5   8
BRANCH   1  18
ATOM     18  C   UNL     1      31.398  21.515  32.711  0.00  0.00    +0.000 C 
BRANCH  18  20
ATOM     19  C   UNL     1      30.641  20.950  35.006  0.00  0.00    +0.000 C 
ATOM     20  C   UNL     1      31.511  21.596  34.203  0.00  0.00    +0.000 C 
ENDBRANCH  18  20
ENDBRANCH   1  18
TORSDOF 3
ENDMDL
MODEL 5
REMARK VINA RESULT:      -5.6     22.946     25.573
REMARK  Name = 
REMARK  3 active torsions:
REMARK  status: ('A' for Active; 'I' for Inactive)
REMARK    1  A    between atoms: C_2  and  C_3
REMARK    2  A    between atoms: C_3  and  N_4
REMARK    3  A    between atoms: C_8  and  C_9
REMARK                            x       y       z     vdW  Elec       q    Type
REMARK                         _______ _______ _______ _____ _____    ______ ____
ROOT
ATOM      1  N   UNL     1      34.123   3.538  35.725  0.00  0.00    +0.000 NA
ATOM      2  C   UNL     1      33.928   2.164  35.638  0.00  0.00    +0.000 C 
ATOM      3  N   UNL     1      33.534   1.667  34.528  0.00  0.00    +0.000 NA
ATOM      4  N   UNL     1      33.299   0.342  34.286  0.00  0.00    +0.000 NA
ATOM      5  C   UNL     1      33.437  -0.735  35.189  0.00  0.00    +0.000 C 
ATOM      6  C   UNL     1      33.832  -0.569  36.438  0.00  0.00    +0.000 C 
ATOM      7  S   UNL     1      34.210   1.058  37.034  0.00  0.00    +0.000 S 
ENDROOT
BRANCH   5   8
ATOM      8  C   UNL     1      33.133  -2.114  34.739  0.00  0.00    +0.000 A 
ATOM      9  C   UNL     1      32.409  -2.939  35.559  0.00  0.00    +0.000 A 
ATOM     10  C   UNL     1      32.097  -4.252  35.180  0.00  0.00    +0.000 A 
ATOM     11  C   UNL     1      32.546  -4.694  33.935  0.00  0.00    +0.000 A 
ATOM     12  C   UNL     1      33.270  -3.872  33.110  0.00  0.00    +0.000 A 
ATOM     13  C   UNL     1      33.555  -2.594  33.520  0.00  0.00    +0.000 A 
ATOM     14  O   UNL     1      33.710  -4.315  31.885  0.00  0.00    +0.000 OA
ATOM     15  C   UNL     1      33.412  -5.614  31.385  0.00  0.00    +0.000 C 
ATOM     16  C   UNL     1      32.190  -6.173  32.087  0.00  0.00    +0.000 C 
ATOM     17  O   UNL     1      32.270  -5.988  33.496  0.00  0.00    +0.000 OA
ENDBRANCH   5   8
BRANCH   1  18
ATOM     18  C   UNL     1      34.308   4.323  34.519  0.00  0.00    +0.000 C 
BRANCH  18  20
ATOM     19  C   UNL     1      35.882   6.184  34.985  0.00  0.00    +0.000 C 
ATOM     20  C   UNL     1      34.613   5.729  34.936  0.00  0.00    +0.000 C 
ENDBRANCH  18  20
ENDBRANCH   1  18
TORSDOF 3
ENDMDL
MODEL 6
REMARK VINA RESULT:      -5.5     26.522     28.554
REMARK  Name = 
REMARK  3 active torsions:
REMARK  status: ('A' for Active; 'I' for Inactive)
REMARK    1  A    between atoms: C_2  and  C_3
REMARK    2  A    between atoms: C_3  and  N_4
REMARK    3  A    between atoms: C_8  and  C_9
REMARK                            x       y       z     vdW  Elec       q    Type
REMARK                         _______ _______ _______ _____ _____    ______ ____
ROOT
ATOM      1  N   UNL     1      33.211  -1.756  35.892  0.00  0.00    +0.000 NA
ATOM      2  C   UNL     1      33.081  -2.760  34.938  0.00  0.00    +0.000 C 
ATOM      3  N   UNL     1      33.598  -2.582  33.784  0.00  0.00    +0.000 NA
ATOM      4  N   UNL     1      33.555  -3.471  32.745  0.00  0.00    +0.000 NA
ATOM      5  C   UNL     1      32.945  -4.744  32.727  0.00  0.00    +0.000 C 
ATOM      6  C   UNL     1      32.313  -5.244  33.774  0.00  0.00    +0.000 C 
ATOM      7  S   UNL     1      32.209  -4.302  35.273  0.00  0.00    +0.000 S 
ENDROOT
BRANCH   5   8
ATOM      8  C   UNL     1      33.004  -5.570  31.498  0.00  0.00    +0.000 A 
ATOM      9  C   UNL     1      33.724  -5.118  30.424  0.00  0.00    +0.000 A 
ATOM     10  C   UNL     1      33.809  -5.863  29.239  0.00  0.00    +0.000 A 
ATOM     11  C   UNL     1      33.137  -7.084  29.188  0.00  0.00    +0.000 A 
ATOM     12  C   UNL     1      32.416  -7.542  30.261  0.00  0.00    +0.000 A 
ATOM     13  C   UNL     1      32.357  -6.781  31.402  0.00  0.00    +0.000 A 
ATOM     14  O   UNL     1      31.755  -8.746  30.202  0.00  0.00    +0.000 OA
ATOM     15  C   UNL     1      31.812  -9.599  29.065  0.00  0.00    +0.000 C 
ATOM     16  C   UNL     1      33.038  -9.278  28.234  0.00  0.00    +0.000 C 
ATOM     17  O   UNL     1      33.181  -7.874  28.040  0.00  0.00    +0.000 OA
ENDBRANCH   5   8
BRANCH   1  18
ATOM     18  C   UNL     1      34.250  -0.753  35.754  0.00  0.00    +0.000 C 
BRANCH  18  20
ATOM     19  C   UNL     1      33.537   1.081  34.241  0.00  0.00    +0.000 C 
ATOM     20  C   UNL     1      33.579   0.560  35.484  0.00  0.00    +0.000 C 
ENDBRANCH  18  20
ENDBRANCH   1  18
TORSDOF 3
ENDMDL
MODEL 7
REMARK VINA RESULT:      -5.4     19.249     21.139
REMARK  Name = 
REMARK  3 active torsions:
REMARK  status: ('A' for Active; 'I' for Inactive)
REMARK    1  A    between atoms: C_2  and  C_3
REMARK    2  A    between atoms: C_3  and  N_4
REMARK    3  A    between atoms: C_8  and  C_9
REMARK                            x       y       z     vdW  Elec       q    Type
REMARK                         _______ _______ _______ _____ _____    ______ ____
ROOT
ATOM      1  N   UNL     1      15.077  11.801  35.323  0.00  0.00    +0.000 NA
ATOM      2  C   UNL     1      16.295  11.242  35.691  0.00  0.00    +0.000 C 
ATOM      3  N   UNL     1      16.901  11.706  36.716  0.00  0.00    +0.000 NA
ATOM      4  N   UNL     1      18.100  11.264  37.201  0.00  0.00    +0.000 NA
ATOM      5  C   UNL     1      18.907  10.226  36.687  0.00  0.00    +0.000 C 
ATOM      6  C   UNL     1      18.570   9.529  35.617  0.00  0.00    +0.000 C 
ATOM      7  S   UNL     1      17.052   9.887  34.774  0.00  0.00    +0.000 S 
ENDROOT
BRANCH   5   8
ATOM      8  C   UNL     1      20.186   9.888  37.356  0.00  0.00    +0.000 A 
ATOM      9  C   UNL     1      21.340   9.864  36.618  0.00  0.00    +0.000 A 
ATOM     10  C   UNL     1      22.573   9.550  37.205  0.00  0.00    +0.000 A 
ATOM     11  C   UNL     1      22.589   9.262  38.570  0.00  0.00    +0.000 A 
ATOM     12  C   UNL     1      21.438   9.285  39.314  0.00  0.00    +0.000 A 
ATOM     13  C   UNL     1      20.251   9.597  38.700  0.00  0.00    +0.000 A 
ATOM     14  O   UNL     1      21.463   8.999  40.658  0.00  0.00    +0.000 OA
ATOM     15  C   UNL     1      22.666   8.710  41.360  0.00  0.00    +0.000 C 
ATOM     16  C   UNL     1      23.856   9.262  40.602  0.00  0.00    +0.000 C 
ATOM     17  O   UNL     1      23.783   8.942  39.216  0.00  0.00    +0.000 OA
ENDBRANCH   5   8
BRANCH   1  18
ATOM     18  C   UNL     1      14.305  12.562  36.288  0.00  0.00    +0.000 C 
BRANCH  18  20
ATOM     19  C   UNL     1      13.401  11.085  38.066  0.00  0.00    +0.000 C 
ATOM     20  C   UNL     1      13.257  11.651  36.850  0.00  0.00    +0.000 C 
ENDBRANCH  18  20
ENDBRANCH   1  18
TORSDOF 3
ENDMDL
MODEL 8
REMARK VINA RESULT:      -5.4     22.235     25.075
REMARK  Name = 
REMARK  3 active torsions:
REMARK  status: ('A' for Active; 'I' for Inactive)
REMARK    1  A    between atoms: C_2  and  C_3
REMARK    2  A    between atoms: C_3  and  N_4
REMARK    3  A    between atoms: C_8  and  C_9
REMARK                            x       y       z     vdW  Elec       q    Type
REMARK                         _______ _______ _______ _____ _____    ______ ____
ROOT
ATOM      1  N   UNL     1      34.232   4.547  36.222  0.00  0.00    +0.000 NA
ATOM      2  C   UNL     1      34.063   3.177  36.053  0.00  0.00    +0.000 C 
ATOM      3  N   UNL     1      33.756   2.733  34.896  0.00  0.00    +0.000 NA
ATOM      4  N   UNL     1      33.557   1.419  34.573  0.00  0.00    +0.000 NA
ATOM      5  C   UNL     1      33.648   0.299  35.428  0.00  0.00    +0.000 C 
ATOM      6  C   UNL     1      33.952   0.407  36.709  0.00  0.00    +0.000 C 
ATOM      7  S   UNL     1      34.264   2.006  37.410  0.00  0.00    +0.000 S 
ENDROOT
BRANCH   5   8
ATOM      8  C   UNL     1      33.397  -1.059  34.891  0.00  0.00    +0.000 A 
ATOM      9  C   UNL     1      33.915  -1.400  33.670  0.00  0.00    +0.000 A 
ATOM     10  C   UNL     1      33.705  -2.672  33.119  0.00  0.00    +0.000 A 
ATOM     11  C   UNL     1      32.949  -3.583  33.856  0.00  0.00    +0.000 A 
ATOM     12  C   UNL     1      32.428  -3.248  35.080  0.00  0.00    +0.000 A 
ATOM     13  C   UNL     1      32.657  -1.991  35.583  0.00  0.00    +0.000 A 
ATOM     14  O   UNL     1      31.683  -4.151  35.800  0.00  0.00    +0.000 OA
ATOM     15  C   UNL     1      31.446  -5.481  35.353  0.00  0.00    +0.000 C 
ATOM     16  C   UNL     1      32.499  -5.885  34.340  0.00  0.00    +0.000 C 
ATOM     17  O   UNL     1      32.702  -4.865  33.367  0.00  0.00    +0.000 OA
ENDBRANCH   5   8
BRANCH   1  18
ATOM     18  C   UNL     1      34.488   5.394  35.072  0.00  0.00    +0.000 C 
BRANCH  18  20
ATOM     19  C   UNL     1      36.177   7.200  35.284  0.00  0.00    +0.000 C 
ATOM     20  C   UNL     1      35.900   5.885  35.177  0.00  0.00    +0.000 C 
ENDBRANCH  18  20
ENDBRANCH   1  18
TORSDOF 3
ENDMDL
MODEL 9
REMARK VINA RESULT:      -5.3     21.841     24.630
REMARK  Name = 
REMARK  3 active torsions:
REMARK  status: ('A' for Active; 'I' for Inactive)
REMARK    1  A    between atoms: C_2  and  C_3
REMARK    2  A    between atoms: C_3  and  N_4
REMARK    3  A    between atoms: C_8  and  C_9
REMARK                            x       y       z     vdW  Elec       q    Type
REMARK                         _______ _______ _______ _____ _____    ______ ____
ROOT
ATOM      1  N   UNL     1      32.609  -4.387  35.617  0.00  0.00    +0.000 NA
ATOM      2  C   UNL     1      32.895  -3.084  35.226  0.00  0.00    +0.000 C 
ATOM      3  N   UNL     1      32.696  -2.134  36.057  0.00  0.00    +0.000 NA
ATOM      4  N   UNL     1      32.928  -0.807  35.821  0.00  0.00    +0.000 NA
ATOM      5  C   UNL     1      33.426  -0.217  34.639  0.00  0.00    +0.000 C 
ATOM      6  C   UNL     1      33.739  -0.926  33.570  0.00  0.00    +0.000 C 
ATOM      7  S   UNL     1      33.538  -2.687  33.589  0.00  0.00    +0.000 S 
ENDROOT
BRANCH   5   8
ATOM      8  C   UNL     1      33.612   1.252  34.573  0.00  0.00    +0.000 A 
ATOM      9  C   UNL     1      33.473   1.888  33.367  0.00  0.00    +0.000 A 
ATOM     10  C   UNL     1      33.640   3.275  33.253  0.00  0.00    +0.000 A 
ATOM     11  C   UNL     1      33.952   3.991  34.409  0.00  0.00    +0.000 A 
ATOM     12  C   UNL     1      34.091   3.359  35.619  0.00  0.00    +0.000 A 
ATOM     13  C   UNL     1      33.920   1.999  35.687  0.00  0.00    +0.000 A 
ATOM     14  O   UNL     1      34.400   4.071  36.753  0.00  0.00    +0.000 OA
ATOM     15  C   UNL     1      34.548   5.486  36.756  0.00  0.00    +0.000 C 
ATOM     16  C   UNL     1      33.833   6.086  35.561  0.00  0.00    +0.000 C 
ATOM     17  O   UNL     1      34.131   5.373  34.365  0.00  0.00    +0.000 OA
ENDBRANCH   5   8
BRANCH   1  18
ATOM     18  C   UNL     1      32.514  -4.718  37.027  0.00  0.00    +0.000 C 
BRANCH  18  20
ATOM     19  C   UNL     1      34.317  -5.109  38.688  0.00  0.00    +0.000 C 
ATOM     20  C   UNL     1      33.830  -5.302  37.445  0.00  0.00    +0.000 C 
ENDBRANCH  18  20
ENDBRANCH   1  18
TORSDOF 3
ENDMDL
MODEL 10
REMARK VINA RESULT:      -5.3     22.519     23.701
REMARK  Name = 
REMARK  3 active torsions:
REMARK  status: ('A' for Active; 'I' for Inactive)
REMARK    1  A    between atoms: C_2  and  C_3
REMARK    2  A    between atoms: C_3  and  N_4
REMARK    3  A    between atoms: C_8  and  C_9
REMARK                            x       y       z     vdW  Elec       q    Type
REMARK                         _______ _______ _______ _____ _____    ______ ____
ROOT
ATOM      1  N   UNL     1      27.726   4.719  16.915  0.00  0.00    +0.000 NA
ATOM      2  C   UNL     1      26.528   4.013  16.926  0.00  0.00    +0.000 C 
ATOM      3  N   UNL     1      25.430   4.665  16.958  0.00  0.00    +0.000 NA
ATOM      4  N   UNL     1      24.177   4.117  16.973  0.00  0.00    +0.000 NA
ATOM      5  C   UNL     1      23.837   2.747  16.957  0.00  0.00    +0.000 C 
ATOM      6  C   UNL     1      24.747   1.790  16.923  0.00  0.00    +0.000 C 
ATOM      7  S   UNL     1      26.469   2.211  16.897  0.00  0.00    +0.000 S 
ENDROOT
BRANCH   5   8
ATOM      8  C   UNL     1      22.411   2.343  16.977  0.00  0.00    +0.000 A 
ATOM      9  C   UNL     1      21.565   2.927  17.882  0.00  0.00    +0.000 A 
ATOM     10  C   UNL     1      20.209   2.578  17.941  0.00  0.00    +0.000 A 
ATOM     11  C   UNL     1      19.745   1.615  17.045  0.00  0.00    +0.000 A 
ATOM     12  C   UNL     1      20.587   1.027  16.136  0.00  0.00    +0.000 A 
ATOM     13  C   UNL     1      21.909   1.397  16.112  0.00  0.00    +0.000 A 
ATOM     14  O   UNL     1      20.123   0.078  15.257  0.00  0.00    +0.000 OA
ATOM     15  C   UNL     1      18.757  -0.317  15.204  0.00  0.00    +0.000 C 
ATOM     16  C   UNL     1      17.880   0.760  15.811  0.00  0.00    +0.000 C 
ATOM     17  O   UNL     1      18.407   1.222  17.050  0.00  0.00    +0.000 OA
ENDBRANCH   5   8
BRANCH   1  18
ATOM     18  C   UNL     1      27.745   6.112  16.510  0.00  0.00    +0.000 C 
BRANCH  18  20
ATOM     19  C   UNL     1      27.709   6.943  18.849  0.00  0.00    +0.000 C 
ATOM     20  C   UNL     1      28.317   6.906  17.645  0.00  0.00    +0.000 C 
ENDBRANCH  18  20
ENDBRANCH   1  18
TORSDOF 3
ENDMDL
