MODEL 1
REMARK VINA RESULT:      -6.1      0.000      0.000
REMARK  Name = 
REMARK  1 active torsions:
REMARK  status: ('A' for Active; 'I' for Inactive)
REMARK    1  A    between atoms: C_2  and  C_3
REMARK                            x       y       z     vdW  Elec       q    Type
REMARK                         _______ _______ _______ _____ _____    ______ ____
ROOT
ATOM      1  O   UNL     1      27.341  26.089  27.981  0.00  0.00    +0.000 OA
ATOM      2  C   UNL     1      27.625  24.891  27.723  0.00  0.00    +0.000 C 
ATOM      3  N   UNL     1      28.037  24.506  26.453  0.00  0.00    +0.000 N 
ATOM      4  C   UNL     1      28.353  23.109  26.206  0.00  0.00    +0.000 C 
ATOM      5  C   UNL     1      27.200  22.713  25.272  0.00  0.00    +0.000 C 
ATOM      6  C   UNL     1      27.331  23.516  24.016  0.00  0.00    +0.000 C 
ATOM      7  O   UNL     1      26.292  23.090  23.185  0.00  0.00    +0.000 OA
ATOM      8  C   UNL     1      28.629  23.440  23.352  0.00  0.00    +0.000 C 
ATOM      9  C   UNL     1      28.361  23.698  21.861  0.00  0.00    +0.000 C 
ATOM     10  C   UNL     1      27.343  24.834  21.865  0.00  0.00    +0.000 C 
ATOM     11  C   UNL     1      27.626  25.714  23.040  0.00  0.00    +0.000 C 
ATOM     12  C   UNL     1      26.913  25.041  24.334  0.00  0.00    +0.000 C 
ATOM     13  C   UNL     1      28.194  25.361  25.310  0.00  0.00    +0.000 C 
ENDROOT
BRANCH   2  14
ATOM     14  C   UNL     1      27.527  23.877  28.754  0.00  0.00    +0.000 A 
ATOM     15  C   UNL     1      26.363  23.196  29.028  0.00  0.00    +0.000 A 
ATOM     16  C   UNL     1      26.355  22.257  30.015  0.00  0.00    +0.000 A 
ATOM     17  C   UNL     1      27.485  21.954  30.766  0.00  0.00    +0.000 A 
ATOM     18  C   UNL     1      28.668  22.634  30.501  0.00  0.00    +0.000 A 
ATOM     19  C   UNL     1      28.656  23.579  29.500  0.00  0.00    +0.000 A 
ATOM     20 CL   UNL     1      30.153  24.437  29.167  0.00  0.00    +0.000 Cl
ENDBRANCH   2  14
TORSDOF 1
ENDMDL
MODEL 2
REMARK VINA RESULT:      -6.0      2.303      6.219
REMARK  Name = 
REMARK  1 active torsions:
REMARK  status: ('A' for Active; 'I' for Inactive)
REMARK    1  A    between atoms: C_2  and  C_3
REMARK                            x       y       z     vdW  Elec       q    Type
REMARK                         _______ _______ _______ _____ _____    ______ ____
ROOT
ATOM      1  O   UNL     1      25.605  25.925  24.966  0.00  0.00    +0.000 OA
ATOM      2  C   UNL     1      26.518  25.060  25.006  0.00  0.00    +0.000 C 
ATOM      3  N   UNL     1      26.651  24.204  26.093  0.00  0.00    +0.000 N 
ATOM      4  C   UNL     1      27.722  23.223  26.092  0.00  0.00    +0.000 C 
ATOM      5  C   UNL     1      28.620  23.773  27.210  0.00  0.00    +0.000 C 
ATOM      6  C   UNL     1      27.847  23.711  28.490  0.00  0.00    +0.000 C 
ATOM      7  O   UNL     1      28.716  24.178  29.479  0.00  0.00    +0.000 OA
ATOM      8  C   UNL     1      27.285  22.407  28.826  0.00  0.00    +0.000 C 
ATOM      9  C   UNL     1      27.181  22.369  30.359  0.00  0.00    +0.000 C 
ATOM     10  C   UNL     1      26.675  23.761  30.724  0.00  0.00    +0.000 C 
ATOM     11  C   UNL     1      25.773  24.234  29.630  0.00  0.00    +0.000 C 
ATOM     12  C   UNL     1      26.712  24.858  28.461  0.00  0.00    +0.000 C 
ATOM     13  C   UNL     1      25.820  24.174  27.264  0.00  0.00    +0.000 C 
ENDROOT
BRANCH   2  14
ATOM     14  C   UNL     1      27.459  24.937  23.911  0.00  0.00    +0.000 A 
ATOM     15  C   UNL     1      28.637  25.645  23.852  0.00  0.00    +0.000 A 
ATOM     16  C   UNL     1      29.467  25.471  22.786  0.00  0.00    +0.000 A 
ATOM     17  C   UNL     1      29.172  24.600  21.743  0.00  0.00    +0.000 A 
ATOM     18  C   UNL     1      27.985  23.878  21.790  0.00  0.00    +0.000 A 
ATOM     19  C   UNL     1      27.159  24.067  22.875  0.00  0.00    +0.000 A 
ATOM     20 CL   UNL     1      25.659  23.153  22.931  0.00  0.00    +0.000 Cl
ENDBRANCH   2  14
TORSDOF 1
ENDMDL
MODEL 3
REMARK VINA RESULT:      -5.8      1.861      6.277
REMARK  Name = 
REMARK  1 active torsions:
REMARK  status: ('A' for Active; 'I' for Inactive)
REMARK    1  A    between atoms: C_2  and  C_3
REMARK                            x       y       z     vdW  Elec       q    Type
REMARK                         _______ _______ _______ _____ _____    ______ ____
ROOT
ATOM      1  O   UNL     1      26.147  22.905  24.310  0.00  0.00    +0.000 OA
ATOM      2  C   UNL     1      27.295  23.405  24.430  0.00  0.00    +0.000 C 
ATOM      3  N   UNL     1      28.069  23.168  25.560  0.00  0.00    +0.000 N 
ATOM      4  C   UNL     1      29.388  23.770  25.652  0.00  0.00    +0.000 C 
ATOM      5  C   UNL     1      29.166  24.785  26.782  0.00  0.00    +0.000 C 
ATOM      6  C   UNL     1      28.845  24.021  28.028  0.00  0.00    +0.000 C 
ATOM      7  O   UNL     1      28.695  24.981  29.032  0.00  0.00    +0.000 OA
ATOM      8  C   UNL     1      29.805  22.986  28.398  0.00  0.00    +0.000 C 
ATOM      9  C   UNL     1      29.708  22.840  29.925  0.00  0.00    +0.000 C 
ATOM     10  C   UNL     1      28.210  22.910  30.203  0.00  0.00    +0.000 C 
ATOM     11  C   UNL     1      27.489  22.291  29.049  0.00  0.00    +0.000 C 
ATOM     12  C   UNL     1      27.351  23.426  27.896  0.00  0.00    +0.000 C 
ATOM     13  C   UNL     1      27.703  22.365  26.693  0.00  0.00    +0.000 C 
ENDROOT
BRANCH   2  14
ATOM     14  C   UNL     1      27.840  24.248  23.385  0.00  0.00    +0.000 A 
ATOM     15  C   UNL     1      28.643  23.768  22.377  0.00  0.00    +0.000 A 
ATOM     16  C   UNL     1      29.115  24.629  21.432  0.00  0.00    +0.000 A 
ATOM     17  C   UNL     1      28.817  25.987  21.443  0.00  0.00    +0.000 A 
ATOM     18  C   UNL     1      28.006  26.486  22.456  0.00  0.00    +0.000 A 
ATOM     19  C   UNL     1      27.540  25.601  23.402  0.00  0.00    +0.000 A 
ATOM     20 CL   UNL     1      26.515  26.235  24.681  0.00  0.00    +0.000 Cl
ENDBRANCH   2  14
TORSDOF 1
ENDMDL
MODEL 4
REMARK VINA RESULT:      -5.7     33.186     35.015
REMARK  Name = 
REMARK  1 active torsions:
REMARK  status: ('A' for Active; 'I' for Inactive)
REMARK    1  A    between atoms: C_2  and  C_3
REMARK                            x       y       z     vdW  Elec       q    Type
REMARK                         _______ _______ _______ _____ _____    ______ ____
ROOT
ATOM      1  O   UNL     1      16.951  -9.161  25.435  0.00  0.00    +0.000 OA
ATOM      2  C   UNL     1      17.777  -8.836  26.327  0.00  0.00    +0.000 C 
ATOM      3  N   UNL     1      18.115  -9.712  27.351  0.00  0.00    +0.000 N 
ATOM      4  C   UNL     1      19.073  -9.288  28.357  0.00  0.00    +0.000 C 
ATOM      5  C   UNL     1      18.166  -9.180  29.592  0.00  0.00    +0.000 C 
ATOM      6  C   UNL     1      17.647 -10.549  29.901  0.00  0.00    +0.000 C 
ATOM      7  O   UNL     1      16.868 -10.407  31.052  0.00  0.00    +0.000 OA
ATOM      8  C   UNL     1      18.660 -11.589  30.049  0.00  0.00    +0.000 C 
ATOM      9  C   UNL     1      18.056 -12.641  30.993  0.00  0.00    +0.000 C 
ATOM     10  C   UNL     1      16.609 -12.762  30.524  0.00  0.00    +0.000 C 
ATOM     11  C   UNL     1      16.574 -12.547  29.046  0.00  0.00    +0.000 C 
ATOM     12  C   UNL     1      16.547 -10.944  28.788  0.00  0.00    +0.000 C 
ATOM     13  C   UNL     1      17.607 -11.043  27.538  0.00  0.00    +0.000 C 
ENDROOT
BRANCH   2  14
ATOM     14  C   UNL     1      18.398  -7.526  26.306  0.00  0.00    +0.000 A 
ATOM     15  C   UNL     1      17.826  -6.415  26.882  0.00  0.00    +0.000 A 
ATOM     16  C   UNL     1      18.477  -5.220  26.818  0.00  0.00    +0.000 A 
ATOM     17  C   UNL     1      19.707  -5.073  26.188  0.00  0.00    +0.000 A 
ATOM     18  C   UNL     1      20.297  -6.186  25.601  0.00  0.00    +0.000 A 
ATOM     19  C   UNL     1      19.624  -7.385  25.677  0.00  0.00    +0.000 A 
ATOM     20 CL   UNL     1      20.372  -8.791  24.934  0.00  0.00    +0.000 Cl
ENDBRANCH   2  14
TORSDOF 1
ENDMDL
MODEL 5
REMARK VINA RESULT:      -5.7      3.448      4.545
REMARK  Name = 
REMARK  1 active torsions:
REMARK  status: ('A' for Active; 'I' for Inactive)
REMARK    1  A    between atoms: C_2  and  C_3
REMARK                            x       y       z     vdW  Elec       q    Type
REMARK                         _______ _______ _______ _____ _____    ______ ____
ROOT
ATOM      1  O   UNL     1      25.446  28.358  24.987  0.00  0.00    +0.000 OA
ATOM      2  C   UNL     1      25.138  27.190  25.336  0.00  0.00    +0.000 C 
ATOM      3  N   UNL     1      26.034  26.136  25.197  0.00  0.00    +0.000 N 
ATOM      4  C   UNL     1      25.629  24.805  25.614  0.00  0.00    +0.000 C 
ATOM      5  C   UNL     1      25.544  24.090  24.257  0.00  0.00    +0.000 C 
ATOM      6  C   UNL     1      26.919  24.065  23.666  0.00  0.00    +0.000 C 
ATOM      7  O   UNL     1      26.798  23.369  22.460  0.00  0.00    +0.000 OA
ATOM      8  C   UNL     1      27.962  23.505  24.519  0.00  0.00    +0.000 C 
ATOM      9  C   UNL     1      29.032  22.940  23.571  0.00  0.00    +0.000 C 
ATOM     10  C   UNL     1      29.143  23.997  22.477  0.00  0.00    +0.000 C 
ATOM     11  C   UNL     1      28.900  25.338  23.092  0.00  0.00    +0.000 C 
ATOM     12  C   UNL     1      27.292  25.553  23.168  0.00  0.00    +0.000 C 
ATOM     13  C   UNL     1      27.368  26.214  24.670  0.00  0.00    +0.000 C 
ENDROOT
BRANCH   2  14
ATOM     14  C   UNL     1      23.829  26.913  25.893  0.00  0.00    +0.000 A 
ATOM     15  C   UNL     1      22.717  26.683  25.116  0.00  0.00    +0.000 A 
ATOM     16  C   UNL     1      21.522  26.430  25.720  0.00  0.00    +0.000 A 
ATOM     17  C   UNL     1      21.376  26.396  27.102  0.00  0.00    +0.000 A 
ATOM     18  C   UNL     1      22.491  26.628  27.899  0.00  0.00    +0.000 A 
ATOM     19  C   UNL     1      23.689  26.881  27.271  0.00  0.00    +0.000 A 
ATOM     20 CL   UNL     1      25.097  27.173  28.281  0.00  0.00    +0.000 Cl
ENDBRANCH   2  14
TORSDOF 1
ENDMDL
MODEL 6
REMARK VINA RESULT:      -5.6     33.521     35.018
REMARK  Name = 
REMARK  1 active torsions:
REMARK  status: ('A' for Active; 'I' for Inactive)
REMARK    1  A    between atoms: C_2  and  C_3
REMARK                            x       y       z     vdW  Elec       q    Type
REMARK                         _______ _______ _______ _____ _____    ______ ____
ROOT
ATOM      1  O   UNL     1      17.855  -9.019  28.604  0.00  0.00    +0.000 OA
ATOM      2  C   UNL     1      17.549  -8.513  27.494  0.00  0.00    +0.000 C 
ATOM      3  N   UNL     1      16.503  -9.022  26.733  0.00  0.00    +0.000 N 
ATOM      4  C   UNL     1      16.190  -8.402  25.457  0.00  0.00    +0.000 C 
ATOM      5  C   UNL     1      16.613  -9.513  24.485  0.00  0.00    +0.000 C 
ATOM      6  C   UNL     1      15.729 -10.696  24.729  0.00  0.00    +0.000 C 
ATOM      7  O   UNL     1      16.121 -11.659  23.796  0.00  0.00    +0.000 OA
ATOM      8  C   UNL     1      14.295 -10.434  24.677  0.00  0.00    +0.000 C 
ATOM      9  C   UNL     1      13.634 -11.756  24.256  0.00  0.00    +0.000 C 
ATOM     10  C   UNL     1      14.394 -12.812  25.052  0.00  0.00    +0.000 C 
ATOM     11  C   UNL     1      14.789 -12.216  26.365  0.00  0.00    +0.000 C 
ATOM     12  C   UNL     1      16.159 -11.379  26.127  0.00  0.00    +0.000 C 
ATOM     13  C   UNL     1      15.661 -10.134  27.075  0.00  0.00    +0.000 C 
ENDROOT
BRANCH   2  14
ATOM     14  C   UNL     1      18.288  -7.378  26.978  0.00  0.00    +0.000 A 
ATOM     15  C   UNL     1      17.911  -6.074  27.199  0.00  0.00    +0.000 A 
ATOM     16  C   UNL     1      18.662  -5.064  26.678  0.00  0.00    +0.000 A 
ATOM     17  C   UNL     1      19.806  -5.297  25.923  0.00  0.00    +0.000 A 
ATOM     18  C   UNL     1      20.199  -6.610  25.691  0.00  0.00    +0.000 A 
ATOM     19  C   UNL     1      19.427  -7.616  26.226  0.00  0.00    +0.000 A 
ATOM     20 CL   UNL     1      19.927  -9.275  25.931  0.00  0.00    +0.000 Cl
ENDBRANCH   2  14
TORSDOF 1
ENDMDL
MODEL 7
REMARK VINA RESULT:      -5.6      2.746      4.326
REMARK  Name = 
REMARK  1 active torsions:
REMARK  status: ('A' for Active; 'I' for Inactive)
REMARK    1  A    between atoms: C_2  and  C_3
REMARK                            x       y       z     vdW  Elec       q    Type
REMARK                         _______ _______ _______ _____ _____    ______ ____
ROOT
ATOM      1  O   UNL     1      28.088  22.788  22.726  0.00  0.00    +0.000 OA
ATOM      2  C   UNL     1      28.130  23.556  23.721  0.00  0.00    +0.000 C 
ATOM      3  N   UNL     1      27.731  24.884  23.624  0.00  0.00    +0.000 N 
ATOM      4  C   UNL     1      27.798  25.731  24.802  0.00  0.00    +0.000 C 
ATOM      5  C   UNL     1      28.928  26.692  24.404  0.00  0.00    +0.000 C 
ATOM      6  C   UNL     1      28.465  27.475  23.215  0.00  0.00    +0.000 C 
ATOM      7  O   UNL     1      29.503  28.361  22.919  0.00  0.00    +0.000 OA
ATOM      8  C   UNL     1      27.186  28.161  23.371  0.00  0.00    +0.000 C 
ATOM      9  C   UNL     1      27.237  29.376  22.431  0.00  0.00    +0.000 C 
ATOM     10  C   UNL     1      27.892  28.830  21.166  0.00  0.00    +0.000 C 
ATOM     11  C   UNL     1      27.480  27.403  21.002  0.00  0.00    +0.000 C 
ATOM     12  C   UNL     1      28.465  26.503  21.927  0.00  0.00    +0.000 C 
ATOM     13  C   UNL     1      27.238  25.543  22.446  0.00  0.00    +0.000 C 
ENDROOT
BRANCH   2  14
ATOM     14  C   UNL     1      28.600  23.070  25.003  0.00  0.00    +0.000 A 
ATOM     15  C   UNL     1      27.757  22.597  25.981  0.00  0.00    +0.000 A 
ATOM     16  C   UNL     1      28.282  22.157  27.159  0.00  0.00    +0.000 A 
ATOM     17  C   UNL     1      29.648  22.167  27.419  0.00  0.00    +0.000 A 
ATOM     18  C   UNL     1      30.512  22.643  26.439  0.00  0.00    +0.000 A 
ATOM     19  C   UNL     1      29.963  23.082  25.256  0.00  0.00    +0.000 A 
ATOM     20 CL   UNL     1      31.058  23.683  24.020  0.00  0.00    +0.000 Cl
ENDBRANCH   2  14
TORSDOF 1
ENDMDL
MODEL 8
REMARK VINA RESULT:      -5.6     21.130     22.776
REMARK  Name = 
REMARK  1 active torsions:
REMARK  status: ('A' for Active; 'I' for Inactive)
REMARK    1  A    between atoms: C_2  and  C_3
REMARK                            x       y       z     vdW  Elec       q    Type
REMARK                         _______ _______ _______ _____ _____    ______ ____
ROOT
ATOM      1  O   UNL     1      25.628   4.919  14.573  0.00  0.00    +0.000 OA
ATOM      2  C   UNL     1      25.684   4.667  15.804  0.00  0.00    +0.000 C 
ATOM      3  N   UNL     1      24.962   3.618  16.359  0.00  0.00    +0.000 N 
ATOM      4  C   UNL     1      25.059   3.369  17.787  0.00  0.00    +0.000 C 
ATOM      5  C   UNL     1      23.648   3.761  18.246  0.00  0.00    +0.000 C 
ATOM      6  C   UNL     1      22.679   2.815  17.610  0.00  0.00    +0.000 C 
ATOM      7  O   UNL     1      21.420   3.183  18.091  0.00  0.00    +0.000 OA
ATOM      8  C   UNL     1      22.952   1.397  17.819  0.00  0.00    +0.000 C 
ATOM      9  C   UNL     1      21.594   0.683  17.735  0.00  0.00    +0.000 C 
ATOM     10  C   UNL     1      20.894   1.369  16.566  0.00  0.00    +0.000 C 
ATOM     11  C   UNL     1      21.930   1.759  15.561  0.00  0.00    +0.000 C 
ATOM     12  C   UNL     1      22.565   3.174  16.041  0.00  0.00    +0.000 C 
ATOM     13  C   UNL     1      24.094   2.713  15.657  0.00  0.00    +0.000 C 
ENDROOT
BRANCH   2  14
ATOM     14  C   UNL     1      26.510   5.474  16.679  0.00  0.00    +0.000 A 
ATOM     15  C   UNL     1      26.050   6.605  17.313  0.00  0.00    +0.000 A 
ATOM     16  C   UNL     1      26.892   7.308  18.120  0.00  0.00    +0.000 A 
ATOM     17  C   UNL     1      28.213   6.929  18.332  0.00  0.00    +0.000 A 
ATOM     18  C   UNL     1      28.693   5.789  17.698  0.00  0.00    +0.000 A 
ATOM     19  C   UNL     1      27.826   5.092  16.887  0.00  0.00    +0.000 A 
ATOM     20 CL   UNL     1      28.435   3.651  16.086  0.00  0.00    +0.000 Cl
ENDBRANCH   2  14
TORSDOF 1
ENDMDL
MODEL 9
REMARK VINA RESULT:      -5.5     38.259     39.609
REMARK  Name = 
REMARK  1 active torsions:
REMARK  status: ('A' for Active; 'I' for Inactive)
REMARK    1  A    between atoms: C_2  and  C_3
REMARK                            x       y       z     vdW  Elec       q    Type
REMARK                         _______ _______ _______ _____ _____    ______ ____
ROOT
ATOM      1  O   UNL     1       1.716  -3.236  19.556  0.00  0.00    +0.000 OA
ATOM      2  C   UNL     1       1.481  -4.002  20.525  0.00  0.00    +0.000 C 
ATOM      3  N   UNL     1       0.184  -4.224  20.970  0.00  0.00    +0.000 N 
ATOM      4  C   UNL     1      -0.035  -5.117  22.095  0.00  0.00    +0.000 C 
ATOM      5  C   UNL     1      -0.502  -4.124  23.168  0.00  0.00    +0.000 C 
ATOM      6  C   UNL     1      -1.795  -3.526  22.708  0.00  0.00    +0.000 C 
ATOM      7  O   UNL     1      -2.200  -2.667  23.733  0.00  0.00    +0.000 OA
ATOM      8  C   UNL     1      -2.839  -4.481  22.349  0.00  0.00    +0.000 C 
ATOM      9  C   UNL     1      -4.176  -3.763  22.593  0.00  0.00    +0.000 C 
ATOM     10  C   UNL     1      -3.933  -2.353  22.063  0.00  0.00    +0.000 C 
ATOM     11  C   UNL     1      -2.995  -2.442  20.903  0.00  0.00    +0.000 C 
ATOM     12  C   UNL     1      -1.487  -2.500  21.501  0.00  0.00    +0.000 C 
ATOM     13  C   UNL     1      -1.016  -3.649  20.427  0.00  0.00    +0.000 C 
ENDROOT
BRANCH   2  14
ATOM     14  C   UNL     1       2.569  -4.676  21.206  0.00  0.00    +0.000 A 
ATOM     15  C   UNL     1       3.022  -5.924  20.844  0.00  0.00    +0.000 A 
ATOM     16  C   UNL     1       4.050  -6.487  21.537  0.00  0.00    +0.000 A 
ATOM     17  C   UNL     1       4.668  -5.850  22.607  0.00  0.00    +0.000 A 
ATOM     18  C   UNL     1       4.220  -4.589  22.985  0.00  0.00    +0.000 A 
ATOM     19  C   UNL     1       3.180  -4.036  22.272  0.00  0.00    +0.000 A 
ATOM     20 CL   UNL     1       2.616  -2.442  22.752  0.00  0.00    +0.000 Cl
ENDBRANCH   2  14
TORSDOF 1
ENDMDL
MODEL 10
REMARK VINA RESULT:      -5.5     20.698     22.381
REMARK  Name = 
REMARK  1 active torsions:
REMARK  status: ('A' for Active; 'I' for Inactive)
REMARK    1  A    between atoms: C_2  and  C_3
REMARK                            x       y       z     vdW  Elec       q    Type
REMARK                         _______ _______ _______ _____ _____    ______ ____
ROOT
ATOM      1  O   UNL     1      26.553   1.623  17.032  0.00  0.00    +0.000 OA
ATOM      2  C   UNL     1      25.836   2.571  16.619  0.00  0.00    +0.000 C 
ATOM      3  N   UNL     1      26.402   3.725  16.093  0.00  0.00    +0.000 N 
ATOM      4  C   UNL     1      25.531   4.792  15.630  0.00  0.00    +0.000 C 
ATOM      5  C   UNL     1      25.819   5.877  16.678  0.00  0.00    +0.000 C 
ATOM      6  C   UNL     1      27.256   6.272  16.545  0.00  0.00    +0.000 C 
ATOM      7  O   UNL     1      27.458   7.287  17.484  0.00  0.00    +0.000 OA
ATOM      8  C   UNL     1      27.678   6.673  15.207  0.00  0.00    +0.000 C 
ATOM      9  C   UNL     1      28.852   7.645  15.403  0.00  0.00    +0.000 C 
ATOM     10  C   UNL     1      29.669   7.009  16.523  0.00  0.00    +0.000 C 
ATOM     11  C   UNL     1      29.557   5.524  16.400  0.00  0.00    +0.000 C 
ATOM     12  C   UNL     1      28.174   5.079  17.126  0.00  0.00    +0.000 C 
ATOM     13  C   UNL     1      27.804   3.999  15.946  0.00  0.00    +0.000 C 
ENDROOT
BRANCH   2  14
ATOM     14  C   UNL     1      24.391   2.479  16.686  0.00  0.00    +0.000 A 
ATOM     15  C   UNL     1      23.624   1.976  15.661  0.00  0.00    +0.000 A 
ATOM     16  C   UNL     1      22.270   1.925  15.804  0.00  0.00    +0.000 A 
ATOM     17  C   UNL     1      21.623   2.364  16.954  0.00  0.00    +0.000 A 
ATOM     18  C   UNL     1      22.386   2.875  17.998  0.00  0.00    +0.000 A 
ATOM     19  C   UNL     1      23.752   2.918  17.834  0.00  0.00    +0.000 A 
ATOM     20 CL   UNL     1      24.714   3.564  19.156  0.00  0.00    +0.000 Cl
ENDBRANCH   2  14
TORSDOF 1
ENDMDL
