MODEL 1
REMARK VINA RESULT:      -7.7      0.000      0.000
REMARK  Name = 
REMARK  4 active torsions:
REMARK  status: ('A' for Active; 'I' for Inactive)
REMARK    1  A    between atoms: C_2  and  C_4
REMARK    2  A    between atoms: C_7  and  C_8
REMARK    3  A    between atoms: N_9  and  C_10
REMARK    4  A    between atoms: C_15  and  C_16
REMARK                            x       y       z     vdW  Elec       q    Type
REMARK                         _______ _______ _______ _____ _____    ______ ____
ROOT
ATOM      1  C   UNL     1      14.935  12.475  35.605  0.00  0.00    +0.000 C 
ATOM      2  N   UNL     1      14.970  11.936  34.454  0.00  0.00    +0.000 NA
ENDROOT
BRANCH   1   6
ATOM      3  C   UNL     1      16.342  10.313  39.023  0.00  0.00    +0.000 A 
ATOM      4  C   UNL     1      15.013  10.675  38.906  0.00  0.00    +0.000 A 
ATOM      5  C   UNL     1      14.556  11.372  37.806  0.00  0.00    +0.000 A 
ATOM      6  C   UNL     1      15.385  11.736  36.786  0.00  0.00    +0.000 A 
ATOM      7  C   UNL     1      16.721  11.377  36.895  0.00  0.00    +0.000 A 
ATOM      8  C   UNL     1      17.182  10.680  37.993  0.00  0.00    +0.000 A 
BRANCH   3  10
ATOM      9  C   UNL     1      15.738   8.967  40.985  0.00  0.00    +0.000 C 
ATOM     10  C   UNL     1      16.860   9.564  40.196  0.00  0.00    +0.000 C 
ATOM     11  C   UNL     1      17.884   8.529  39.757  0.00  0.00    +0.000 C 
ENDBRANCH   3  10
ENDBRANCH   1   6
BRANCH   2  12
ATOM     12  C   UNL     1      14.556  12.576  33.255  0.00  0.00    +0.000 A 
ATOM     13  C   UNL     1      14.033  13.847  33.205  0.00  0.00    +0.000 A 
ATOM     14  C   UNL     1      13.632  14.466  32.040  0.00  0.00    +0.000 A 
ATOM     15  C   UNL     1      13.771  13.749  30.869  0.00  0.00    +0.000 A 
ATOM     16  C   UNL     1      14.288  12.477  30.876  0.00  0.00    +0.000 A 
ATOM     17  C   UNL     1      14.684  11.881  32.068  0.00  0.00    +0.000 A 
BRANCH  17  18
ATOM     18  C   UNL     1      15.232  10.524  32.050  0.00  0.00    +0.000 C 
ATOM     19  N   UNL     1      16.620  10.324  31.987  0.00  0.00    +0.000 NA
ATOM     20  O   UNL     1      14.433   9.548  32.093  0.00  0.00    +0.000 OA
ENDBRANCH  17  18
ENDBRANCH   2  12
TORSDOF 4
ENDMDL
MODEL 2
REMARK VINA RESULT:      -7.2      2.266      7.623
REMARK  Name = 
REMARK  4 active torsions:
REMARK  status: ('A' for Active; 'I' for Inactive)
REMARK    1  A    between atoms: C_2  and  C_4
REMARK    2  A    between atoms: C_7  and  C_8
REMARK    3  A    between atoms: N_9  and  C_10
REMARK    4  A    between atoms: C_15  and  C_16
REMARK                            x       y       z     vdW  Elec       q    Type
REMARK                         _______ _______ _______ _____ _____    ______ ____
ROOT
ATOM      1  C   UNL     1      16.529  10.346  35.605  0.00  0.00    +0.000 C 
ATOM      2  N   UNL     1      16.290  10.944  36.701  0.00  0.00    +0.000 NA
ENDROOT
BRANCH   1   6
ATOM      3  C   UNL     1      15.443  12.220  31.912  0.00  0.00    +0.000 A 
ATOM      4  C   UNL     1      16.410  11.233  31.952  0.00  0.00    +0.000 A 
ATOM      5  C   UNL     1      16.762  10.627  33.141  0.00  0.00    +0.000 A 
ATOM      6  C   UNL     1      16.180  10.967  34.327  0.00  0.00    +0.000 A 
ATOM      7  C   UNL     1      15.208  11.958  34.295  0.00  0.00    +0.000 A 
ATOM      8  C   UNL     1      14.853  12.566  33.109  0.00  0.00    +0.000 A 
BRANCH   3  10
ATOM      9  C   UNL     1      13.762  13.640  30.821  0.00  0.00    +0.000 C 
ATOM     10  C   UNL     1      15.045  12.889  30.647  0.00  0.00    +0.000 C 
ATOM     11  C   UNL     1      16.173  13.767  30.131  0.00  0.00    +0.000 C 
ENDBRANCH   3  10
ENDBRANCH   1   6
BRANCH   2  12
ATOM     12  C   UNL     1      16.594  10.418  37.985  0.00  0.00    +0.000 A 
ATOM     13  C   UNL     1      17.821   9.903  38.333  0.00  0.00    +0.000 A 
ATOM     14  C   UNL     1      18.114   9.393  39.581  0.00  0.00    +0.000 A 
ATOM     15  C   UNL     1      17.102   9.411  40.517  0.00  0.00    +0.000 A 
ATOM     16  C   UNL     1      15.861   9.916  40.211  0.00  0.00    +0.000 A 
ATOM     17  C   UNL     1      15.599  10.423  38.943  0.00  0.00    +0.000 A 
BRANCH  17  18
ATOM     18  C   UNL     1      14.271  10.956  38.639  0.00  0.00    +0.000 C 
ATOM     19  N   UNL     1      13.132  10.405  39.248  0.00  0.00    +0.000 NA
ATOM     20  O   UNL     1      14.175  11.915  37.824  0.00  0.00    +0.000 OA
ENDBRANCH  17  18
ENDBRANCH   2  12
TORSDOF 4
ENDMDL
MODEL 3
REMARK VINA RESULT:      -7.1      2.746      7.673
REMARK  Name = 
REMARK  4 active torsions:
REMARK  status: ('A' for Active; 'I' for Inactive)
REMARK    1  A    between atoms: C_2  and  C_4
REMARK    2  A    between atoms: C_7  and  C_8
REMARK    3  A    between atoms: N_9  and  C_10
REMARK    4  A    between atoms: C_15  and  C_16
REMARK                            x       y       z     vdW  Elec       q    Type
REMARK                         _______ _______ _______ _____ _____    ______ ____
ROOT
ATOM      1  C   UNL     1      16.084  10.962  36.526  0.00  0.00    +0.000 C 
ATOM      2  N   UNL     1      17.242  10.676  36.967  0.00  0.00    +0.000 NA
ENDROOT
BRANCH   1   6
ATOM      3  C   UNL     1      15.457  12.154  32.462  0.00  0.00    +0.000 A 
ATOM      4  C   UNL     1      16.465  11.270  32.797  0.00  0.00    +0.000 A 
ATOM      5  C   UNL     1      16.670  10.884  34.107  0.00  0.00    +0.000 A 
ATOM      6  C   UNL     1      15.896  11.350  35.128  0.00  0.00    +0.000 A 
ATOM      7  C   UNL     1      14.881  12.239  34.799  0.00  0.00    +0.000 A 
ATOM      8  C   UNL     1      14.673  12.627  33.492  0.00  0.00    +0.000 A 
BRANCH   3  10
ATOM      9  C   UNL     1      14.012  13.472  30.977  0.00  0.00    +0.000 C 
ATOM     10  C   UNL     1      15.215  12.586  31.061  0.00  0.00    +0.000 C 
ATOM     11  C   UNL     1      16.462  13.233  30.481  0.00  0.00    +0.000 C 
ENDBRANCH   3  10
ENDBRANCH   1   6
BRANCH   2  12
ATOM     12  C   UNL     1      17.518  10.290  38.306  0.00  0.00    +0.000 A 
ATOM     13  C   UNL     1      16.550   9.945  39.220  0.00  0.00    +0.000 A 
ATOM     14  C   UNL     1      16.821   9.570  40.520  0.00  0.00    +0.000 A 
ATOM     15  C   UNL     1      18.146   9.548  40.902  0.00  0.00    +0.000 A 
ATOM     16  C   UNL     1      19.143   9.886  40.020  0.00  0.00    +0.000 A 
ATOM     17  C   UNL     1      18.837  10.259  38.716  0.00  0.00    +0.000 A 
BRANCH  17  18
ATOM     18  C   UNL     1      19.916  10.615  37.794  0.00  0.00    +0.000 C 
ATOM     19  N   UNL     1      20.590  11.838  37.934  0.00  0.00    +0.000 NA
ATOM     20  O   UNL     1      20.222   9.803  36.878  0.00  0.00    +0.000 OA
ENDBRANCH  17  18
ENDBRANCH   2  12
TORSDOF 4
ENDMDL
MODEL 4
REMARK VINA RESULT:      -6.6     21.164     23.535
REMARK  Name = 
REMARK  4 active torsions:
REMARK  status: ('A' for Active; 'I' for Inactive)
REMARK    1  A    between atoms: C_2  and  C_4
REMARK    2  A    between atoms: C_7  and  C_8
REMARK    3  A    between atoms: N_9  and  C_10
REMARK    4  A    between atoms: C_15  and  C_16
REMARK                            x       y       z     vdW  Elec       q    Type
REMARK                         _______ _______ _______ _____ _____    ______ ____
ROOT
ATOM      1  C   UNL     1      22.248  -6.751  24.875  0.00  0.00    +0.000 C 
ATOM      2  N   UNL     1      21.441  -7.494  25.516  0.00  0.00    +0.000 NA
ENDROOT
BRANCH   1   6
ATOM      3  C   UNL     1      25.927  -8.256  23.285  0.00  0.00    +0.000 A 
ATOM      4  C   UNL     1      24.963  -9.113  23.783  0.00  0.00    +0.000 A 
ATOM      5  C   UNL     1      23.776  -8.630  24.297  0.00  0.00    +0.000 A 
ATOM      6  C   UNL     1      23.495  -7.297  24.338  0.00  0.00    +0.000 A 
ATOM      7  C   UNL     1      24.458  -6.430  23.840  0.00  0.00    +0.000 A 
ATOM      8  C   UNL     1      25.646  -6.907  23.326  0.00  0.00    +0.000 A 
BRANCH   3  10
ATOM      9  C   UNL     1      28.001  -7.624  22.132  0.00  0.00    +0.000 C 
ATOM     10  C   UNL     1      27.213  -8.748  22.727  0.00  0.00    +0.000 C 
ATOM     11  C   UNL     1      27.992  -9.516  23.783  0.00  0.00    +0.000 C 
ENDBRANCH   3  10
ENDBRANCH   1   6
BRANCH   2  12
ATOM     12  C   UNL     1      20.210  -7.051  26.071  0.00  0.00    +0.000 A 
ATOM     13  C   UNL     1      19.747  -5.759  25.979  0.00  0.00    +0.000 A 
ATOM     14  C   UNL     1      18.552  -5.332  26.518  0.00  0.00    +0.000 A 
ATOM     15  C   UNL     1      17.793  -6.272  27.183  0.00  0.00    +0.000 A 
ATOM     16  C   UNL     1      18.219  -7.573  27.299  0.00  0.00    +0.000 A 
ATOM     17  C   UNL     1      19.429  -7.972  26.744  0.00  0.00    +0.000 A 
BRANCH  17  18
ATOM     18  C   UNL     1      19.863  -9.363  26.879  0.00  0.00    +0.000 C 
ATOM     19  N   UNL     1      19.455 -10.324  25.940  0.00  0.00    +0.000 NA
ATOM     20  O   UNL     1      20.605  -9.674  27.851  0.00  0.00    +0.000 OA
ENDBRANCH  17  18
ENDBRANCH   2  12
TORSDOF 4
ENDMDL
MODEL 5
REMARK VINA RESULT:      -6.5     28.855     31.464
REMARK  Name = 
REMARK  4 active torsions:
REMARK  status: ('A' for Active; 'I' for Inactive)
REMARK    1  A    between atoms: C_2  and  C_4
REMARK    2  A    between atoms: C_7  and  C_8
REMARK    3  A    between atoms: N_9  and  C_10
REMARK    4  A    between atoms: C_15  and  C_16
REMARK                            x       y       z     vdW  Elec       q    Type
REMARK                         _______ _______ _______ _____ _____    ______ ____
ROOT
ATOM      1  C   UNL     1      32.354  20.297  11.888  0.00  0.00    +0.000 C 
ATOM      2  N   UNL     1      33.469  20.861  11.657  0.00  0.00    +0.000 NA
ENDROOT
BRANCH   1   6
ATOM      3  C   UNL     1      28.707  22.540  11.902  0.00  0.00    +0.000 A 
ATOM      4  C   UNL     1      29.647  22.702  12.903  0.00  0.00    +0.000 A 
ATOM      5  C   UNL     1      30.823  21.980  12.901  0.00  0.00    +0.000 A 
ATOM      6  C   UNL     1      31.117  21.079  11.921  0.00  0.00    +0.000 A 
ATOM      7  C   UNL     1      30.179  20.910  10.912  0.00  0.00    +0.000 A 
ATOM      8  C   UNL     1      29.002  21.629  10.910  0.00  0.00    +0.000 A 
BRANCH   3  10
ATOM      9  C   UNL     1      26.339  22.497  11.254  0.00  0.00    +0.000 C 
ATOM     10  C   UNL     1      27.433  23.304  11.879  0.00  0.00    +0.000 C 
ATOM     11  C   UNL     1      27.079  23.791  13.275  0.00  0.00    +0.000 C 
ENDBRANCH   3  10
ENDBRANCH   1   6
BRANCH   2  12
ATOM     12  C   UNL     1      34.717  20.183  11.605  0.00  0.00    +0.000 A 
ATOM     13  C   UNL     1      35.420  19.784  12.717  0.00  0.00    +0.000 A 
ATOM     14  C   UNL     1      36.631  19.126  12.664  0.00  0.00    +0.000 A 
ATOM     15  C   UNL     1      37.147  18.864  11.412  0.00  0.00    +0.000 A 
ATOM     16  C   UNL     1      36.477  19.246  10.275  0.00  0.00    +0.000 A 
ATOM     17  C   UNL     1      35.257  19.909  10.363  0.00  0.00    +0.000 A 
BRANCH  17  18
ATOM     18  C   UNL     1      34.561  20.306   9.139  0.00  0.00    +0.000 C 
ATOM     19  N   UNL     1      33.675  19.418   8.510  0.00  0.00    +0.000 NA
ATOM     20  O   UNL     1      34.776  21.457   8.667  0.00  0.00    +0.000 OA
ENDBRANCH  17  18
ENDBRANCH   2  12
TORSDOF 4
ENDMDL
MODEL 6
REMARK VINA RESULT:      -6.4     20.000     22.987
REMARK  Name = 
REMARK  4 active torsions:
REMARK  status: ('A' for Active; 'I' for Inactive)
REMARK    1  A    between atoms: C_2  and  C_4
REMARK    2  A    between atoms: C_7  and  C_8
REMARK    3  A    between atoms: N_9  and  C_10
REMARK    4  A    between atoms: C_15  and  C_16
REMARK                            x       y       z     vdW  Elec       q    Type
REMARK                         _______ _______ _______ _____ _____    ______ ____
ROOT
ATOM      1  C   UNL     1      33.890  -0.988  33.272  0.00  0.00    +0.000 C 
ATOM      2  N   UNL     1      33.704  -1.859  34.179  0.00  0.00    +0.000 NA
ENDROOT
BRANCH   1   6
ATOM      3  C   UNL     1      33.719   3.209  34.100  0.00  0.00    +0.000 A 
ATOM      4  C   UNL     1      33.641   2.279  35.119  0.00  0.00    +0.000 A 
ATOM      5  C   UNL     1      33.695   0.924  34.855  0.00  0.00    +0.000 A 
ATOM      6  C   UNL     1      33.828   0.439  33.588  0.00  0.00    +0.000 A 
ATOM      7  C   UNL     1      33.908   1.367  32.558  0.00  0.00    +0.000 A 
ATOM      8  C   UNL     1      33.854   2.721  32.817  0.00  0.00    +0.000 A 
BRANCH   3  10
ATOM      9  C   UNL     1      32.432   5.271  33.753  0.00  0.00    +0.000 C 
ATOM     10  C   UNL     1      33.663   4.672  34.355  0.00  0.00    +0.000 C 
ATOM     11  C   UNL     1      33.788   4.957  35.842  0.00  0.00    +0.000 C 
ENDBRANCH   3  10
ENDBRANCH   1   6
BRANCH   2  12
ATOM     12  C   UNL     1      33.745  -3.263  33.965  0.00  0.00    +0.000 A 
ATOM     13  C   UNL     1      33.501  -3.862  32.752  0.00  0.00    +0.000 A 
ATOM     14  C   UNL     1      33.542  -5.225  32.546  0.00  0.00    +0.000 A 
ATOM     15  C   UNL     1      33.847  -6.014  33.636  0.00  0.00    +0.000 A 
ATOM     16  C   UNL     1      34.098  -5.456  34.866  0.00  0.00    +0.000 A 
ATOM     17  C   UNL     1      34.048  -4.077  35.040  0.00  0.00    +0.000 A 
BRANCH  17  18
ATOM     18  C   UNL     1      34.319  -3.505  36.359  0.00  0.00    +0.000 C 
ATOM     19  N   UNL     1      35.632  -3.180  36.732  0.00  0.00    +0.000 NA
ATOM     20  O   UNL     1      33.351  -3.313  37.146  0.00  0.00    +0.000 OA
ENDBRANCH  17  18
ENDBRANCH   2  12
TORSDOF 4
ENDMDL
MODEL 7
REMARK VINA RESULT:      -6.2      5.000      7.915
REMARK  Name = 
REMARK  4 active torsions:
REMARK  status: ('A' for Active; 'I' for Inactive)
REMARK    1  A    between atoms: C_2  and  C_4
REMARK    2  A    between atoms: C_7  and  C_8
REMARK    3  A    between atoms: N_9  and  C_10
REMARK    4  A    between atoms: C_15  and  C_16
REMARK                            x       y       z     vdW  Elec       q    Type
REMARK                         _______ _______ _______ _____ _____    ______ ____
ROOT
ATOM      1  C   UNL     1      19.401   9.698  37.179  0.00  0.00    +0.000 C 
ATOM      2  N   UNL     1      20.395  10.359  37.614  0.00  0.00    +0.000 NA
ENDROOT
BRANCH   1   6
ATOM      3  C   UNL     1      15.400  11.095  37.790  0.00  0.00    +0.000 A 
ATOM      4  C   UNL     1      16.105  10.485  38.810  0.00  0.00    +0.000 A 
ATOM      5  C   UNL     1      17.395  10.033  38.616  0.00  0.00    +0.000 A 
ATOM      6  C   UNL     1      18.035  10.164  37.420  0.00  0.00    +0.000 A 
ATOM      7  C   UNL     1      17.334  10.776  36.389  0.00  0.00    +0.000 A 
ATOM      8  C   UNL     1      16.044  11.228  36.578  0.00  0.00    +0.000 A 
BRANCH   3  10
ATOM      9  C   UNL     1      13.350  11.819  36.648  0.00  0.00    +0.000 C 
ATOM     10  C   UNL     1      14.011  11.590  37.971  0.00  0.00    +0.000 C 
ATOM     11  C   UNL     1      13.222  10.647  38.865  0.00  0.00    +0.000 C 
ENDBRANCH   3  10
ENDBRANCH   1   6
BRANCH   2  12
ATOM     12  C   UNL     1      21.753   9.983  37.428  0.00  0.00    +0.000 A 
ATOM     13  C   UNL     1      22.412  10.058  36.223  0.00  0.00    +0.000 A 
ATOM     14  C   UNL     1      23.730   9.693  36.045  0.00  0.00    +0.000 A 
ATOM     15  C   UNL     1      24.406   9.227  37.153  0.00  0.00    +0.000 A 
ATOM     16  C   UNL     1      23.785   9.136  38.375  0.00  0.00    +0.000 A 
ATOM     17  C   UNL     1      22.454   9.513  38.522  0.00  0.00    +0.000 A 
BRANCH  17  18
ATOM     18  C   UNL     1      21.814   9.407  39.833  0.00  0.00    +0.000 C 
ATOM     19  N   UNL     1      21.167   8.219  40.209  0.00  0.00    +0.000 NA
ATOM     20  O   UNL     1      21.856  10.401  40.610  0.00  0.00    +0.000 OA
ENDBRANCH  17  18
ENDBRANCH   2  12
TORSDOF 4
ENDMDL
MODEL 8
REMARK VINA RESULT:      -6.0     19.138     21.384
REMARK  Name = 
REMARK  4 active torsions:
REMARK  status: ('A' for Active; 'I' for Inactive)
REMARK    1  A    between atoms: C_2  and  C_4
REMARK    2  A    between atoms: C_7  and  C_8
REMARK    3  A    between atoms: N_9  and  C_10
REMARK    4  A    between atoms: C_15  and  C_16
REMARK                            x       y       z     vdW  Elec       q    Type
REMARK                         _______ _______ _______ _____ _____    ______ ____
ROOT
ATOM      1  C   UNL     1      30.880  21.938  27.372  0.00  0.00    +0.000 C 
ATOM      2  N   UNL     1      30.773  22.492  28.511  0.00  0.00    +0.000 NA
ENDROOT
BRANCH   1   6
ATOM      3  C   UNL     1      28.324  23.172  24.167  0.00  0.00    +0.000 A 
ATOM      4  C   UNL     1      29.682  23.007  23.971  0.00  0.00    +0.000 A 
ATOM      5  C   UNL     1      30.509  22.609  25.003  0.00  0.00    +0.000 A 
ATOM      6  C   UNL     1      30.033  22.361  26.256  0.00  0.00    +0.000 A 
ATOM      7  C   UNL     1      28.670  22.524  26.461  0.00  0.00    +0.000 A 
ATOM      8  C   UNL     1      27.840  22.921  25.433  0.00  0.00    +0.000 A 
BRANCH   3  10
ATOM      9  C   UNL     1      25.983  23.363  23.451  0.00  0.00    +0.000 C 
ATOM     10  C   UNL     1      27.412  23.599  23.075  0.00  0.00    +0.000 C 
ATOM     11  C   UNL     1      27.685  25.043  22.687  0.00  0.00    +0.000 C 
ENDBRANCH   3  10
ENDBRANCH   1   6
BRANCH   2  12
ATOM     12  C   UNL     1      31.552  22.147  29.648  0.00  0.00    +0.000 A 
ATOM     13  C   UNL     1      32.821  21.622  29.578  0.00  0.00    +0.000 A 
ATOM     14  C   UNL     1      33.575  21.288  30.684  0.00  0.00    +0.000 A 
ATOM     15  C   UNL     1      33.002  21.501  31.920  0.00  0.00    +0.000 A 
ATOM     16  C   UNL     1      31.737  22.023  32.034  0.00  0.00    +0.000 A 
ATOM     17  C   UNL     1      31.003  22.349  30.900  0.00  0.00    +0.000 A 
BRANCH  17  18
ATOM     18  C   UNL     1      29.657  22.904  31.045  0.00  0.00    +0.000 C 
ATOM     19  N   UNL     1      29.479  24.281  31.256  0.00  0.00    +0.000 NA
ATOM     20  O   UNL     1      28.668  22.122  30.977  0.00  0.00    +0.000 OA
ENDBRANCH  17  18
ENDBRANCH   2  12
TORSDOF 4
ENDMDL
MODEL 9
REMARK VINA RESULT:      -6.0      2.938      4.569
REMARK  Name = 
REMARK  4 active torsions:
REMARK  status: ('A' for Active; 'I' for Inactive)
REMARK    1  A    between atoms: C_2  and  C_4
REMARK    2  A    between atoms: C_7  and  C_8
REMARK    3  A    between atoms: N_9  and  C_10
REMARK    4  A    between atoms: C_15  and  C_16
REMARK                            x       y       z     vdW  Elec       q    Type
REMARK                         _______ _______ _______ _____ _____    ______ ____
ROOT
ATOM      1  C   UNL     1      17.602   9.695  38.226  0.00  0.00    +0.000 C 
ATOM      2  N   UNL     1      16.747  10.228  37.450  0.00  0.00    +0.000 NA
ENDROOT
BRANCH   1   6
ATOM      3  C   UNL     1      17.022   9.571  42.466  0.00  0.00    +0.000 A 
ATOM      4  C   UNL     1      15.947   9.534  41.599  0.00  0.00    +0.000 A 
ATOM      5  C   UNL     1      16.130   9.574  40.231  0.00  0.00    +0.000 A 
ATOM      6  C   UNL     1      17.370   9.651  39.670  0.00  0.00    +0.000 A 
ATOM      7  C   UNL     1      18.456   9.689  40.534  0.00  0.00    +0.000 A 
ATOM      8  C   UNL     1      18.278   9.650  41.901  0.00  0.00    +0.000 A 
BRANCH   3  10
ATOM      9  C   UNL     1      16.072  10.712  44.422  0.00  0.00    +0.000 C 
ATOM     10  C   UNL     1      16.854   9.530  43.941  0.00  0.00    +0.000 C 
ATOM     11  C   UNL     1      16.241   8.207  44.370  0.00  0.00    +0.000 C 
ENDBRANCH   3  10
ENDBRANCH   1   6
BRANCH   2  12
ATOM     12  C   UNL     1      16.888  10.315  36.039  0.00  0.00    +0.000 A 
ATOM     13  C   UNL     1      17.650   9.450  35.289  0.00  0.00    +0.000 A 
ATOM     14  C   UNL     1      17.785   9.536  33.919  0.00  0.00    +0.000 A 
ATOM     15  C   UNL     1      17.107  10.557  33.286  0.00  0.00    +0.000 A 
ATOM     16  C   UNL     1      16.335  11.443  33.998  0.00  0.00    +0.000 A 
ATOM     17  C   UNL     1      16.220  11.328  35.379  0.00  0.00    +0.000 A 
BRANCH  17  18
ATOM     18  C   UNL     1      15.392  12.283  36.116  0.00  0.00    +0.000 C 
ATOM     19  N   UNL     1      14.053  11.979  36.408  0.00  0.00    +0.000 NA
ATOM     20  O   UNL     1      15.907  13.377  36.480  0.00  0.00    +0.000 OA
ENDBRANCH  17  18
ENDBRANCH   2  12
TORSDOF 4
ENDMDL
MODEL 10
REMARK VINA RESULT:      -5.9     18.575     20.544
REMARK  Name = 
REMARK  4 active torsions:
REMARK  status: ('A' for Active; 'I' for Inactive)
REMARK    1  A    between atoms: C_2  and  C_4
REMARK    2  A    between atoms: C_7  and  C_8
REMARK    3  A    between atoms: N_9  and  C_10
REMARK    4  A    between atoms: C_15  and  C_16
REMARK                            x       y       z     vdW  Elec       q    Type
REMARK                         _______ _______ _______ _____ _____    ______ ____
ROOT
ATOM      1  C   UNL     1      26.359  25.056  26.287  0.00  0.00    +0.000 C 
ATOM      2  N   UNL     1      26.606  24.056  25.543  0.00  0.00    +0.000 NA
ENDROOT
BRANCH   1   6
ATOM      3  C   UNL     1      22.402  26.685  26.432  0.00  0.00    +0.000 A 
ATOM      4  C   UNL     1      23.020  26.212  27.574  0.00  0.00    +0.000 A 
ATOM      5  C   UNL     1      24.296  25.686  27.531  0.00  0.00    +0.000 A 
ATOM      6  C   UNL     1      25.006  25.607  26.370  0.00  0.00    +0.000 A 
ATOM      7  C   UNL     1      24.393  26.079  25.217  0.00  0.00    +0.000 A 
ATOM      8  C   UNL     1      23.118  26.605  25.256  0.00  0.00    +0.000 A 
BRANCH   3  10
ATOM      9  C   UNL     1      20.429  27.241  25.080  0.00  0.00    +0.000 C 
ATOM     10  C   UNL     1      21.031  27.255  26.450  0.00  0.00    +0.000 C 
ATOM     11  C   UNL     1      20.170  26.538  27.477  0.00  0.00    +0.000 C 
ENDBRANCH   3  10
ENDBRANCH   1   6
BRANCH   2  12
ATOM     12  C   UNL     1      27.886  23.456  25.402  0.00  0.00    +0.000 A 
ATOM     13  C   UNL     1      28.563  22.842  26.430  0.00  0.00    +0.000 A 
ATOM     14  C   UNL     1      29.806  22.261  26.290  0.00  0.00    +0.000 A 
ATOM     15  C   UNL     1      30.384  22.310  25.038  0.00  0.00    +0.000 A 
ATOM     16  C   UNL     1      29.741  22.914  23.985  0.00  0.00    +0.000 A 
ATOM     17  C   UNL     1      28.488  23.491  24.159  0.00  0.00    +0.000 A 
BRANCH  17  18
ATOM     18  C   UNL     1      27.822  24.129  23.023  0.00  0.00    +0.000 C 
ATOM     19  N   UNL     1      27.026  23.367  22.153  0.00  0.00    +0.000 NA
ATOM     20  O   UNL     1      27.980  25.368  22.846  0.00  0.00    +0.000 OA
ENDBRANCH  17  18
ENDBRANCH   2  12
TORSDOF 4
ENDMDL
