MODEL 1
REMARK VINA RESULT:      -6.1      0.000      0.000
REMARK  Name = 
REMARK  3 active torsions:
REMARK  status: ('A' for Active; 'I' for Inactive)
REMARK    1  A    between atoms: C_2  and  C_3
REMARK    2  A    between atoms: C_12  and  C_13
REMARK    3  A    between atoms: C_13  and  C_14
REMARK                            x       y       z     vdW  Elec       q    Type
REMARK                         _______ _______ _______ _____ _____    ______ ____
ROOT
ATOM      1  O   UNL     1      15.512  12.867  35.627  0.00  0.00    +0.000 OA
ATOM      2  C   UNL     1      15.671  11.742  35.092  0.00  0.00    +0.000 C 
ATOM      3  N   UNL     1      15.292  11.554  33.768  0.00  0.00    +0.000 N 
ATOM      4  C   UNL     1      15.376  10.360  32.940  0.00  0.00    +0.000 C 
ATOM      5  C   UNL     1      15.388  10.835  31.505  0.00  0.00    +0.000 C 
ATOM      6  C   UNL     1      15.784  12.392  31.687  0.00  0.00    +0.000 C 
ATOM      7  C   UNL     1      14.709  12.564  32.913  0.00  0.00    +0.000 C 
ENDROOT
BRANCH   2   8
ATOM      8  C   UNL     1      16.263  10.687  35.935  0.00  0.00    +0.000 C 
ATOM      9  C   UNL     1      16.174  10.891  37.398  0.00  0.00    +0.000 C 
ATOM     10  S   UNL     1      17.936  11.124  37.444  0.00  0.00    +0.000 S 
ATOM     11  O   UNL     1      18.609  10.219  38.412  0.00  0.00    +0.000 OA
ATOM     12  O   UNL     1      18.341  12.556  37.476  0.00  0.00    +0.000 OA
ATOM     13  C   UNL     1      17.738  10.463  35.804  0.00  0.00    +0.000 C 
ENDBRANCH   2   8
BRANCH   6  14
ATOM     14  C   UNL     1      14.748  12.924  30.565  0.00  0.00    +0.000 C 
BRANCH  14  15
ATOM     15  C   UNL     1      13.814  13.850  31.271  0.00  0.00    +0.000 C 
ATOM     16  F   UNL     1      14.225  15.152  31.315  0.00  0.00    +0.000 F 
ENDBRANCH  14  15
ENDBRANCH   6  14
TORSDOF 3
ENDMDL
MODEL 2
REMARK VINA RESULT:      -5.2     28.530     30.076
REMARK  Name = 
REMARK  3 active torsions:
REMARK  status: ('A' for Active; 'I' for Inactive)
REMARK    1  A    between atoms: C_2  and  C_3
REMARK    2  A    between atoms: C_12  and  C_13
REMARK    3  A    between atoms: C_13  and  C_14
REMARK                            x       y       z     vdW  Elec       q    Type
REMARK                         _______ _______ _______ _____ _____    ______ ____
ROOT
ATOM      1  O   UNL     1      32.802  21.595  11.540  0.00  0.00    +0.000 OA
ATOM      2  C   UNL     1      31.756  21.433  10.863  0.00  0.00    +0.000 C 
ATOM      3  N   UNL     1      30.523  21.741  11.425  0.00  0.00    +0.000 N 
ATOM      4  C   UNL     1      29.190  21.640  10.848  0.00  0.00    +0.000 C 
ATOM      5  C   UNL     1      28.317  22.605  11.618  0.00  0.00    +0.000 C 
ATOM      6  C   UNL     1      29.427  23.551  12.318  0.00  0.00    +0.000 C 
ATOM      7  C   UNL     1      30.316  22.247  12.764  0.00  0.00    +0.000 C 
ENDROOT
BRANCH   2   8
ATOM      8  C   UNL     1      31.929  20.918   9.493  0.00  0.00    +0.000 C 
ATOM      9  C   UNL     1      33.244  20.312   9.182  0.00  0.00    +0.000 C 
ATOM     10  S   UNL     1      33.587  21.680   8.101  0.00  0.00    +0.000 S 
ATOM     11  O   UNL     1      33.955  21.248   6.728  0.00  0.00    +0.000 OA
ATOM     12  O   UNL     1      34.446  22.723   8.725  0.00  0.00    +0.000 OA
ATOM     13  C   UNL     1      31.846  21.915   8.378  0.00  0.00    +0.000 C 
ENDBRANCH   2   8
BRANCH   6  14
ATOM     14  C   UNL     1      28.652  23.637  13.735  0.00  0.00    +0.000 C 
BRANCH  14  15
ATOM     15  C   UNL     1      27.221  23.326  13.443  0.00  0.00    +0.000 C 
ATOM     16  F   UNL     1      26.387  24.409  13.455  0.00  0.00    +0.000 F 
ENDBRANCH  14  15
ENDBRANCH   6  14
TORSDOF 3
ENDMDL
MODEL 3
REMARK VINA RESULT:      -5.1     18.701     19.876
REMARK  Name = 
REMARK  3 active torsions:
REMARK  status: ('A' for Active; 'I' for Inactive)
REMARK    1  A    between atoms: C_2  and  C_3
REMARK    2  A    between atoms: C_12  and  C_13
REMARK    3  A    between atoms: C_13  and  C_14
REMARK                            x       y       z     vdW  Elec       q    Type
REMARK                         _______ _______ _______ _____ _____    ______ ____
ROOT
ATOM      1  O   UNL     1      27.125  25.491  24.809  0.00  0.00    +0.000 OA
ATOM      2  C   UNL     1      27.695  24.377  24.918  0.00  0.00    +0.000 C 
ATOM      3  N   UNL     1      27.883  23.826  26.180  0.00  0.00    +0.000 N 
ATOM      4  C   UNL     1      28.508  22.566  26.558  0.00  0.00    +0.000 C 
ATOM      5  C   UNL     1      27.948  22.201  27.914  0.00  0.00    +0.000 C 
ATOM      6  C   UNL     1      26.631  23.139  27.978  0.00  0.00    +0.000 C 
ATOM      7  C   UNL     1      27.475  24.432  27.428  0.00  0.00    +0.000 C 
ENDROOT
BRANCH   2   8
ATOM      8  C   UNL     1      28.126  23.730  23.666  0.00  0.00    +0.000 C 
ATOM      9  C   UNL     1      29.568  23.821  23.345  0.00  0.00    +0.000 C 
ATOM     10  S   UNL     1      29.167  24.893  21.984  0.00  0.00    +0.000 S 
ATOM     11  O   UNL     1      29.723  24.412  20.693  0.00  0.00    +0.000 OA
ATOM     12  O   UNL     1      29.356  26.337  22.296  0.00  0.00    +0.000 OA
ATOM     13  C   UNL     1      27.552  24.268  22.391  0.00  0.00    +0.000 C 
ENDBRANCH   2   8
BRANCH   6  14
ATOM     14  C   UNL     1      26.829  23.538  29.533  0.00  0.00    +0.000 C 
BRANCH  14  15
ATOM     15  C   UNL     1      27.048  22.256  30.264  0.00  0.00    +0.000 C 
ATOM     16  F   UNL     1      25.910  21.549  30.532  0.00  0.00    +0.000 F 
ENDBRANCH  14  15
ENDBRANCH   6  14
TORSDOF 3
ENDMDL
MODEL 4
REMARK VINA RESULT:      -4.9      2.915      3.907
REMARK  Name = 
REMARK  3 active torsions:
REMARK  status: ('A' for Active; 'I' for Inactive)
REMARK    1  A    between atoms: C_2  and  C_3
REMARK    2  A    between atoms: C_12  and  C_13
REMARK    3  A    between atoms: C_13  and  C_14
REMARK                            x       y       z     vdW  Elec       q    Type
REMARK                         _______ _______ _______ _____ _____    ______ ____
ROOT
ATOM      1  O   UNL     1      18.507  11.417  38.036  0.00  0.00    +0.000 OA
ATOM      2  C   UNL     1      18.745  10.495  37.217  0.00  0.00    +0.000 C 
ATOM      3  N   UNL     1      17.879  10.288  36.150  0.00  0.00    +0.000 N 
ATOM      4  C   UNL     1      17.941   9.297  35.084  0.00  0.00    +0.000 C 
ATOM      5  C   UNL     1      17.142   9.860  33.931  0.00  0.00    +0.000 C 
ATOM      6  C   UNL     1      17.068  11.426  34.328  0.00  0.00    +0.000 C 
ATOM      7  C   UNL     1      16.685  11.057  35.879  0.00  0.00    +0.000 C 
ENDROOT
BRANCH   2   8
ATOM      8  C   UNL     1      19.955   9.689  37.462  0.00  0.00    +0.000 C 
ATOM      9  C   UNL     1      20.611   9.877  38.777  0.00  0.00    +0.000 C 
ATOM     10  S   UNL     1      21.983  10.647  37.949  0.00  0.00    +0.000 S 
ATOM     11  O   UNL     1      23.284  10.011  38.282  0.00  0.00    +0.000 OA
ATOM     12  O   UNL     1      21.936  12.135  37.992  0.00  0.00    +0.000 OA
ATOM     13  C   UNL     1      21.127   9.934  36.563  0.00  0.00    +0.000 C 
ENDBRANCH   2   8
BRANCH   6  14
ATOM     14  C   UNL     1      15.524  11.602  33.880  0.00  0.00    +0.000 C 
BRANCH  14  15
ATOM     15  C   UNL     1      14.817  12.196  35.053  0.00  0.00    +0.000 C 
ATOM     16  F   UNL     1      14.467  13.508  34.906  0.00  0.00    +0.000 F 
ENDBRANCH  14  15
ENDBRANCH   6  14
TORSDOF 3
ENDMDL
MODEL 5
REMARK VINA RESULT:      -4.9     20.049     21.124
REMARK  Name = 
REMARK  3 active torsions:
REMARK  status: ('A' for Active; 'I' for Inactive)
REMARK    1  A    between atoms: C_2  and  C_3
REMARK    2  A    between atoms: C_12  and  C_13
REMARK    3  A    between atoms: C_13  and  C_14
REMARK                            x       y       z     vdW  Elec       q    Type
REMARK                         _______ _______ _______ _____ _____    ______ ____
ROOT
ATOM      1  O   UNL     1      34.105   0.956  36.201  0.00  0.00    +0.000 OA
ATOM      2  C   UNL     1      33.646   1.451  35.141  0.00  0.00    +0.000 C 
ATOM      3  N   UNL     1      33.615   2.832  34.989  0.00  0.00    +0.000 N 
ATOM      4  C   UNL     1      33.136   3.631  33.869  0.00  0.00    +0.000 C 
ATOM      5  C   UNL     1      33.841   4.964  33.964  0.00  0.00    +0.000 C 
ATOM      6  C   UNL     1      35.073   4.606  34.949  0.00  0.00    +0.000 C 
ATOM      7  C   UNL     1      34.076   3.793  35.966  0.00  0.00    +0.000 C 
ENDROOT
BRANCH   2   8
ATOM      8  C   UNL     1      33.165   0.500  34.122  0.00  0.00    +0.000 C 
ATOM      9  C   UNL     1      32.495  -0.719  34.628  0.00  0.00    +0.000 C 
ATOM     10  S   UNL     1      33.876  -1.681  34.053  0.00  0.00    +0.000 S 
ATOM     11  O   UNL     1      33.467  -2.790  33.154  0.00  0.00    +0.000 OA
ATOM     12  O   UNL     1      34.848  -2.017  35.129  0.00  0.00    +0.000 OA
ATOM     13  C   UNL     1      34.200  -0.131  33.242  0.00  0.00    +0.000 C 
ENDBRANCH   2   8
BRANCH   6  14
ATOM     14  C   UNL     1      34.976   5.985  35.789  0.00  0.00    +0.000 C 
BRANCH  14  15
ATOM     15  C   UNL     1      36.246   6.722  35.521  0.00  0.00    +0.000 C 
ATOM     16  F   UNL     1      36.567   6.844  34.199  0.00  0.00    +0.000 F 
ENDBRANCH  14  15
ENDBRANCH   6  14
TORSDOF 3
ENDMDL
MODEL 6
REMARK VINA RESULT:      -4.8     20.369     21.228
REMARK  Name = 
REMARK  3 active torsions:
REMARK  status: ('A' for Active; 'I' for Inactive)
REMARK    1  A    between atoms: C_2  and  C_3
REMARK    2  A    between atoms: C_12  and  C_13
REMARK    3  A    between atoms: C_13  and  C_14
REMARK                            x       y       z     vdW  Elec       q    Type
REMARK                         _______ _______ _______ _____ _____    ______ ____
ROOT
ATOM      1  O   UNL     1      22.501   2.694  15.160  0.00  0.00    +0.000 OA
ATOM      2  C   UNL     1      22.602   2.396  16.376  0.00  0.00    +0.000 C 
ATOM      3  N   UNL     1      23.715   2.821  17.094  0.00  0.00    +0.000 N 
ATOM      4  C   UNL     1      24.053   2.605  18.494  0.00  0.00    +0.000 C 
ATOM      5  C   UNL     1      25.005   3.715  18.879  0.00  0.00    +0.000 C 
ATOM      6  C   UNL     1      24.747   4.783  17.692  0.00  0.00    +0.000 C 
ATOM      7  C   UNL     1      24.809   3.600  16.558  0.00  0.00    +0.000 C 
ENDROOT
BRANCH   2   8
ATOM      8  C   UNL     1      21.504   1.602  16.956  0.00  0.00    +0.000 C 
ATOM      9  C   UNL     1      20.746   0.748  16.014  0.00  0.00    +0.000 C 
ATOM     10  S   UNL     1      19.335   1.807  16.236  0.00  0.00    +0.000 S 
ATOM     11  O   UNL     1      18.118   1.061  16.648  0.00  0.00    +0.000 OA
ATOM     12  O   UNL     1      19.169   2.804  15.143  0.00  0.00    +0.000 OA
ATOM     13  C   UNL     1      20.370   2.361  17.572  0.00  0.00    +0.000 C 
ENDBRANCH   2   8
BRANCH   6  14
ATOM     14  C   UNL     1      26.309   5.170  17.522  0.00  0.00    +0.000 C 
BRANCH  14  15
ATOM     15  C   UNL     1      26.334   6.582  17.037  0.00  0.00    +0.000 C 
ATOM     16  F   UNL     1      25.345   7.377  17.542  0.00  0.00    +0.000 F 
ENDBRANCH  14  15
ENDBRANCH   6  14
TORSDOF 3
ENDMDL
MODEL 7
REMARK VINA RESULT:      -4.7     21.314     22.438
REMARK  Name = 
REMARK  3 active torsions:
REMARK  status: ('A' for Active; 'I' for Inactive)
REMARK    1  A    between atoms: C_2  and  C_3
REMARK    2  A    between atoms: C_12  and  C_13
REMARK    3  A    between atoms: C_13  and  C_14
REMARK                            x       y       z     vdW  Elec       q    Type
REMARK                         _______ _______ _______ _____ _____    ______ ____
ROOT
ATOM      1  O   UNL     1      20.802  -9.268  24.954  0.00  0.00    +0.000 OA
ATOM      2  C   UNL     1      20.972  -8.042  25.171  0.00  0.00    +0.000 C 
ATOM      3  N   UNL     1      19.890  -7.259  25.556  0.00  0.00    +0.000 N 
ATOM      4  C   UNL     1      19.837  -5.835  25.859  0.00  0.00    +0.000 C 
ATOM      5  C   UNL     1      18.630  -5.633  26.746  0.00  0.00    +0.000 C 
ATOM      6  C   UNL     1      18.351  -7.142  27.256  0.00  0.00    +0.000 C 
ATOM      7  C   UNL     1      18.536  -7.733  25.737  0.00  0.00    +0.000 C 
ENDROOT
BRANCH   2   8
ATOM      8  C   UNL     1      22.340  -7.523  24.995  0.00  0.00    +0.000 C 
ATOM      9  C   UNL     1      22.555  -6.621  23.840  0.00  0.00    +0.000 C 
ATOM     10  S   UNL     1      23.546  -7.884  23.076  0.00  0.00    +0.000 S 
ATOM     11  O   UNL     1      24.897  -7.398  22.691  0.00  0.00    +0.000 OA
ATOM     12  O   UNL     1      22.807  -8.677  22.056  0.00  0.00    +0.000 OA
ATOM     13  C   UNL     1      23.418  -8.529  24.728  0.00  0.00    +0.000 C 
ENDBRANCH   2   8
BRANCH   6  14
ATOM     14  C   UNL     1      16.742  -7.029  27.127  0.00  0.00    +0.000 C 
BRANCH  14  15
ATOM     15  C   UNL     1      16.310  -8.199  26.307  0.00  0.00    +0.000 C 
ATOM     16  F   UNL     1      15.165  -8.002  25.589  0.00  0.00    +0.000 F 
ENDBRANCH  14  15
ENDBRANCH   6  14
TORSDOF 3
ENDMDL
MODEL 8
REMARK VINA RESULT:      -4.6     18.216     19.175
REMARK  Name = 
REMARK  3 active torsions:
REMARK  status: ('A' for Active; 'I' for Inactive)
REMARK    1  A    between atoms: C_2  and  C_3
REMARK    2  A    between atoms: C_12  and  C_13
REMARK    3  A    between atoms: C_13  and  C_14
REMARK                            x       y       z     vdW  Elec       q    Type
REMARK                         _______ _______ _______ _____ _____    ______ ____
ROOT
ATOM      1  O   UNL     1      29.113  24.265  27.102  0.00  0.00    +0.000 OA
ATOM      2  C   UNL     1      28.091  23.773  26.561  0.00  0.00    +0.000 C 
ATOM      3  N   UNL     1      27.875  23.971  25.202  0.00  0.00    +0.000 N 
ATOM      4  C   UNL     1      26.781  23.507  24.360  0.00  0.00    +0.000 C 
ATOM      5  C   UNL     1      27.310  23.490  22.944  0.00  0.00    +0.000 C 
ATOM      6  C   UNL     1      28.907  23.528  23.199  0.00  0.00    +0.000 C 
ATOM      7  C   UNL     1      28.741  24.717  24.316  0.00  0.00    +0.000 C 
ENDROOT
BRANCH   2   8
ATOM      8  C   UNL     1      27.185  23.006  27.434  0.00  0.00    +0.000 C 
ATOM      9  C   UNL     1      26.056  23.758  28.028  0.00  0.00    +0.000 C 
ATOM     10  S   UNL     1      26.818  23.585  29.624  0.00  0.00    +0.000 S 
ATOM     11  O   UNL     1      25.908  22.982  30.632  0.00  0.00    +0.000 OA
ATOM     12  O   UNL     1      27.578  24.793  30.049  0.00  0.00    +0.000 OA
ATOM     13  C   UNL     1      27.776  22.421  28.679  0.00  0.00    +0.000 C 
ENDBRANCH   2   8
BRANCH   6  14
ATOM     14  C   UNL     1      29.208  24.562  21.992  0.00  0.00    +0.000 C 
BRANCH  14  15
ATOM     15  C   UNL     1      29.526  25.870  22.638  0.00  0.00    +0.000 C 
ATOM     16  F   UNL     1      29.529  26.941  21.789  0.00  0.00    +0.000 F 
ENDBRANCH  14  15
ENDBRANCH   6  14
TORSDOF 3
ENDMDL
MODEL 9
REMARK VINA RESULT:      -4.6     19.670     20.921
REMARK  Name = 
REMARK  3 active torsions:
REMARK  status: ('A' for Active; 'I' for Inactive)
REMARK    1  A    between atoms: C_2  and  C_3
REMARK    2  A    between atoms: C_12  and  C_13
REMARK    3  A    between atoms: C_13  and  C_14
REMARK                            x       y       z     vdW  Elec       q    Type
REMARK                         _______ _______ _______ _____ _____    ______ ____
ROOT
ATOM      1  O   UNL     1      30.545  23.429  23.755  0.00  0.00    +0.000 OA
ATOM      2  C   UNL     1      29.376  23.272  24.187  0.00  0.00    +0.000 C 
ATOM      3  N   UNL     1      29.183  22.782  25.474  0.00  0.00    +0.000 N 
ATOM      4  C   UNL     1      27.943  22.517  26.189  0.00  0.00    +0.000 C 
ATOM      5  C   UNL     1      28.281  22.564  27.662  0.00  0.00    +0.000 C 
ATOM      6  C   UNL     1      29.697  23.346  27.640  0.00  0.00    +0.000 C 
ATOM      7  C   UNL     1      30.235  22.420  26.398  0.00  0.00    +0.000 C 
ENDROOT
BRANCH   2   8
ATOM      8  C   UNL     1      28.279  23.631  23.272  0.00  0.00    +0.000 C 
ATOM      9  C   UNL     1      28.661  23.905  21.867  0.00  0.00    +0.000 C 
ATOM     10  S   UNL     1      28.248  25.615  22.119  0.00  0.00    +0.000 S 
ATOM     11  O   UNL     1      27.274  26.123  21.119  0.00  0.00    +0.000 OA
ATOM     12  O   UNL     1      29.433  26.473  22.393  0.00  0.00    +0.000 OA
ATOM     13  C   UNL     1      27.526  24.890  23.575  0.00  0.00    +0.000 C 
ENDBRANCH   2   8
BRANCH   6  14
ATOM     14  C   UNL     1      30.380  22.411  28.770  0.00  0.00    +0.000 C 
BRANCH  14  15
ATOM     15  C   UNL     1      31.744  22.079  28.262  0.00  0.00    +0.000 C 
ATOM     16  F   UNL     1      32.286  20.939  28.785  0.00  0.00    +0.000 F 
ENDBRANCH  14  15
ENDBRANCH   6  14
TORSDOF 3
ENDMDL
MODEL 10
REMARK VINA RESULT:      -4.5     17.620     18.516
REMARK  Name = 
REMARK  3 active torsions:
REMARK  status: ('A' for Active; 'I' for Inactive)
REMARK    1  A    between atoms: C_2  and  C_3
REMARK    2  A    between atoms: C_12  and  C_13
REMARK    3  A    between atoms: C_13  and  C_14
REMARK                            x       y       z     vdW  Elec       q    Type
REMARK                         _______ _______ _______ _____ _____    ______ ____
ROOT
ATOM      1  O   UNL     1      25.504  24.023  26.984  0.00  0.00    +0.000 OA
ATOM      2  C   UNL     1      26.659  23.559  27.154  0.00  0.00    +0.000 C 
ATOM      3  N   UNL     1      27.410  23.174  26.049  0.00  0.00    +0.000 N 
ATOM      4  C   UNL     1      28.754  22.617  25.990  0.00  0.00    +0.000 C 
ATOM      5  C   UNL     1      29.283  22.924  24.608  0.00  0.00    +0.000 C 
ATOM      6  C   UNL     1      28.277  24.099  24.134  0.00  0.00    +0.000 C 
ATOM      7  C   UNL     1      26.977  23.257  24.672  0.00  0.00    +0.000 C 
ENDROOT
BRANCH   2   8
ATOM      8  C   UNL     1      27.134  23.459  28.546  0.00  0.00    +0.000 C 
ATOM      9  C   UNL     1      26.150  22.970  29.539  0.00  0.00    +0.000 C 
ATOM     10  S   UNL     1      26.123  24.592  30.266  0.00  0.00    +0.000 S 
ATOM     11  O   UNL     1      26.413  24.573  31.723  0.00  0.00    +0.000 OA
ATOM     12  O   UNL     1      24.962  25.415  29.827  0.00  0.00    +0.000 OA
ATOM     13  C   UNL     1      27.550  24.733  29.213  0.00  0.00    +0.000 C 
ENDBRANCH   2   8
BRANCH   6  14
ATOM     14  C   UNL     1      28.138  23.549  22.620  0.00  0.00    +0.000 C 
BRANCH  14  15
ATOM     15  C   UNL     1      29.125  24.320  21.808  0.00  0.00    +0.000 C 
ATOM     16  F   UNL     1      29.296  25.618  22.198  0.00  0.00    +0.000 F 
ENDBRANCH  14  15
ENDBRANCH   6  14
TORSDOF 3
ENDMDL
