MODEL 1
REMARK VINA RESULT:      -5.9      0.000      0.000
REMARK  Name = 
REMARK  6 active torsions:
REMARK  status: ('A' for Active; 'I' for Inactive)
REMARK    1  A    between atoms: C_2  and  N_3
REMARK    2  A    between atoms: N_3  and  C_4
REMARK    3  A    between atoms: N_3  and  C_6
REMARK    4  A    between atoms: C_6  and  N_8
REMARK    5  A    between atoms: C_9  and  C_11
REMARK    6  A    between atoms: C_14  and  N_15
REMARK                            x       y       z     vdW  Elec       q    Type
REMARK                         _______ _______ _______ _____ _____    ______ ____
ROOT
ATOM      1  N   UNL     1      18.135  11.077  37.026  0.00  0.00    +0.000 NA
ATOM      2  C   UNL     1      17.827  10.295  35.906  0.00  0.00    +0.000 C 
ATOM      3  O   UNL     1      18.358   9.139  35.861  0.00  0.00    +0.000 OA
ENDROOT
BRANCH   2   4
ATOM      4  C   UNL     1      16.949  10.773  34.848  0.00  0.00    +0.000 A 
ATOM      5  C   UNL     1      15.894  11.639  35.043  0.00  0.00    +0.000 A 
ATOM      6  C   UNL     1      15.070  12.090  34.032  0.00  0.00    +0.000 A 
ATOM      7  C   UNL     1      15.309  11.653  32.740  0.00  0.00    +0.000 A 
ATOM      8  C   UNL     1      16.362  10.778  32.507  0.00  0.00    +0.000 A 
ATOM      9  C   UNL     1      17.176  10.341  33.544  0.00  0.00    +0.000 A 
BRANCH   7  10
ATOM     10  N   UNL     1      14.528  12.058  31.640  0.00  0.00    +0.000 N 
ATOM     11  O   UNL     1      13.858  13.115  31.694  0.00  0.00    +0.000 OA
ATOM     12  O   UNL     1      14.466  11.333  30.487  0.00  0.00    +0.000 OA
ENDBRANCH   7  10
ENDBRANCH   2   4
BRANCH   1  13
ATOM     13  C   UNL     1      18.985  10.660  38.087  0.00  0.00    +0.000 C 
ATOM     14  S   UNL     1      18.355   9.928  39.392  0.00  0.00    +0.000 S 
BRANCH  13  15
ATOM     15  N   UNL     1      20.353  10.888  37.977  0.00  0.00    +0.000 N 
BRANCH  15  17
ATOM     16  C   UNL     1      22.013   9.897  36.524  0.00  0.00    +0.000 C 
ATOM     17  C   UNL     1      21.264   9.778  37.811  0.00  0.00    +0.000 C 
ENDBRANCH  15  17
BRANCH  15  18
ATOM     18  C   UNL     1      20.917  12.200  38.019  0.00  0.00    +0.000 C 
ATOM     19  C   UNL     1      20.061  13.164  38.759  0.00  0.00    +0.000 C 
ENDBRANCH  15  18
ENDBRANCH  13  15
ENDBRANCH   1  13
TORSDOF 6
ENDMDL
MODEL 2
REMARK VINA RESULT:      -5.9      0.420      1.168
REMARK  Name = 
REMARK  6 active torsions:
REMARK  status: ('A' for Active; 'I' for Inactive)
REMARK    1  A    between atoms: C_2  and  N_3
REMARK    2  A    between atoms: N_3  and  C_4
REMARK    3  A    between atoms: N_3  and  C_6
REMARK    4  A    between atoms: C_6  and  N_8
REMARK    5  A    between atoms: C_9  and  C_11
REMARK    6  A    between atoms: C_14  and  N_15
REMARK                            x       y       z     vdW  Elec       q    Type
REMARK                         _______ _______ _______ _____ _____    ______ ____
ROOT
ATOM      1  N   UNL     1      17.946  11.054  36.871  0.00  0.00    +0.000 NA
ATOM      2  C   UNL     1      17.623  10.259  35.765  0.00  0.00    +0.000 C 
ATOM      3  O   UNL     1      18.060   9.063  35.782  0.00  0.00    +0.000 OA
ENDROOT
BRANCH   2   4
ATOM      4  C   UNL     1      16.834  10.766  34.652  0.00  0.00    +0.000 A 
ATOM      5  C   UNL     1      17.041  10.430  33.331  0.00  0.00    +0.000 A 
ATOM      6  C   UNL     1      16.284  10.913  32.285  0.00  0.00    +0.000 A 
ATOM      7  C   UNL     1      15.249  11.789  32.567  0.00  0.00    +0.000 A 
ATOM      8  C   UNL     1      15.011  12.151  33.886  0.00  0.00    +0.000 A 
ATOM      9  C   UNL     1      15.790  11.648  34.920  0.00  0.00    +0.000 A 
BRANCH   7  10
ATOM     10  N   UNL     1      14.416  12.334  31.570  0.00  0.00    +0.000 N 
ATOM     11  O   UNL     1      13.692  13.325  31.823  0.00  0.00    +0.000 OA
ATOM     12  O   UNL     1      14.359  11.820  30.310  0.00  0.00    +0.000 OA
ENDBRANCH   7  10
ENDBRANCH   2   4
BRANCH   1  13
ATOM     13  C   UNL     1      18.712  10.610  37.984  0.00  0.00    +0.000 C 
ATOM     14  S   UNL     1      17.984   9.851  39.220  0.00  0.00    +0.000 S 
BRANCH  13  15
ATOM     15  N   UNL     1      20.084  10.835  37.982  0.00  0.00    +0.000 N 
BRANCH  15  17
ATOM     16  C   UNL     1      22.046  10.096  36.777  0.00  0.00    +0.000 C 
ATOM     17  C   UNL     1      21.001   9.735  37.781  0.00  0.00    +0.000 C 
ENDBRANCH  15  17
BRANCH  15  18
ATOM     18  C   UNL     1      20.649  12.134  38.173  0.00  0.00    +0.000 C 
ATOM     19  C   UNL     1      20.807  12.479  39.610  0.00  0.00    +0.000 C 
ENDBRANCH  15  18
ENDBRANCH  13  15
ENDBRANCH   1  13
TORSDOF 6
ENDMDL
MODEL 3
REMARK VINA RESULT:      -5.8      1.085      1.969
REMARK  Name = 
REMARK  6 active torsions:
REMARK  status: ('A' for Active; 'I' for Inactive)
REMARK    1  A    between atoms: C_2  and  N_3
REMARK    2  A    between atoms: N_3  and  C_4
REMARK    3  A    between atoms: N_3  and  C_6
REMARK    4  A    between atoms: C_6  and  N_8
REMARK    5  A    between atoms: C_9  and  C_11
REMARK    6  A    between atoms: C_14  and  N_15
REMARK                            x       y       z     vdW  Elec       q    Type
REMARK                         _______ _______ _______ _____ _____    ______ ____
ROOT
ATOM      1  N   UNL     1      18.394   9.946  36.525  0.00  0.00    +0.000 NA
ATOM      2  C   UNL     1      17.561  11.067  36.422  0.00  0.00    +0.000 C 
ATOM      3  O   UNL     1      17.553  11.857  37.420  0.00  0.00    +0.000 OA
ENDROOT
BRANCH   2   4
ATOM      4  C   UNL     1      16.747  11.320  35.243  0.00  0.00    +0.000 A 
ATOM      5  C   UNL     1      15.622  12.116  35.227  0.00  0.00    +0.000 A 
ATOM      6  C   UNL     1      14.860  12.353  34.102  0.00  0.00    +0.000 A 
ATOM      7  C   UNL     1      15.240  11.760  32.910  0.00  0.00    +0.000 A 
ATOM      8  C   UNL     1      16.367  10.950  32.888  0.00  0.00    +0.000 A 
ATOM      9  C   UNL     1      17.116  10.729  34.036  0.00  0.00    +0.000 A 
BRANCH   7  10
ATOM     10  N   UNL     1      14.531  11.942  31.706  0.00  0.00    +0.000 N 
ATOM     11  O   UNL     1      14.579  11.072  30.805  0.00  0.00    +0.000 OA
ATOM     12  O   UNL     1      13.776  13.051  31.469  0.00  0.00    +0.000 OA
ENDBRANCH   7  10
ENDBRANCH   2   4
BRANCH   1  13
ATOM     13  C   UNL     1      19.209   9.651  37.652  0.00  0.00    +0.000 C 
ATOM     14  S   UNL     1      18.589   8.833  38.910  0.00  0.00    +0.000 S 
BRANCH  13  15
ATOM     15  N   UNL     1      20.534  10.070  37.646  0.00  0.00    +0.000 N 
BRANCH  15  17
ATOM     16  C   UNL     1      20.799  12.215  38.733  0.00  0.00    +0.000 C 
ATOM     17  C   UNL     1      21.086  10.751  38.797  0.00  0.00    +0.000 C 
ENDBRANCH  15  17
BRANCH  15  18
ATOM     18  C   UNL     1      21.403   9.855  36.533  0.00  0.00    +0.000 C 
ATOM     19  C   UNL     1      22.786   9.508  36.950  0.00  0.00    +0.000 C 
ENDBRANCH  15  18
ENDBRANCH  13  15
ENDBRANCH   1  13
TORSDOF 6
ENDMDL
MODEL 4
REMARK VINA RESULT:      -5.6      2.354      3.337
REMARK  Name = 
REMARK  6 active torsions:
REMARK  status: ('A' for Active; 'I' for Inactive)
REMARK    1  A    between atoms: C_2  and  N_3
REMARK    2  A    between atoms: N_3  and  C_4
REMARK    3  A    between atoms: N_3  and  C_6
REMARK    4  A    between atoms: C_6  and  N_8
REMARK    5  A    between atoms: C_9  and  C_11
REMARK    6  A    between atoms: C_14  and  N_15
REMARK                            x       y       z     vdW  Elec       q    Type
REMARK                         _______ _______ _______ _____ _____    ______ ____
ROOT
ATOM      1  N   UNL     1      17.576  10.218  38.110  0.00  0.00    +0.000 NA
ATOM      2  C   UNL     1      17.956  10.035  36.774  0.00  0.00    +0.000 C 
ATOM      3  O   UNL     1      19.063   9.437  36.579  0.00  0.00    +0.000 OA
ENDROOT
BRANCH   2   4
ATOM      4  C   UNL     1      17.136  10.503  35.666  0.00  0.00    +0.000 A 
ATOM      5  C   UNL     1      16.026  11.309  35.803  0.00  0.00    +0.000 A 
ATOM      6  C   UNL     1      15.258  11.750  34.746  0.00  0.00    +0.000 A 
ATOM      7  C   UNL     1      15.616  11.367  33.464  0.00  0.00    +0.000 A 
ATOM      8  C   UNL     1      16.728  10.554  33.288  0.00  0.00    +0.000 A 
ATOM      9  C   UNL     1      17.483  10.125  34.371  0.00  0.00    +0.000 A 
BRANCH   7  10
ATOM     10  N   UNL     1      14.900  11.768  32.319  0.00  0.00    +0.000 N 
ATOM     11  O   UNL     1      14.605  10.933  31.432  0.00  0.00    +0.000 OA
ATOM     12  O   UNL     1      14.503  13.056  32.125  0.00  0.00    +0.000 OA
ENDBRANCH   7  10
ENDBRANCH   2   4
BRANCH   1  13
ATOM     13  C   UNL     1      18.337   9.782  39.228  0.00  0.00    +0.000 C 
ATOM     14  S   UNL     1      19.662  10.605  39.679  0.00  0.00    +0.000 S 
BRANCH  13  15
ATOM     15  N   UNL     1      17.920   8.651  39.921  0.00  0.00    +0.000 N 
BRANCH  15  17
ATOM     16  C   UNL     1      16.777   9.607  41.826  0.00  0.00    +0.000 C 
ATOM     17  C   UNL     1      16.681   8.670  40.666  0.00  0.00    +0.000 C 
ENDBRANCH  15  17
BRANCH  15  18
ATOM     18  C   UNL     1      18.673   7.437  39.931  0.00  0.00    +0.000 C 
ATOM     19  C   UNL     1      17.978   6.344  40.660  0.00  0.00    +0.000 C 
ENDBRANCH  15  18
ENDBRANCH  13  15
ENDBRANCH   1  13
TORSDOF 6
ENDMDL
MODEL 5
REMARK VINA RESULT:      -5.6      2.773      3.545
REMARK  Name = 
REMARK  6 active torsions:
REMARK  status: ('A' for Active; 'I' for Inactive)
REMARK    1  A    between atoms: C_2  and  N_3
REMARK    2  A    between atoms: N_3  and  C_4
REMARK    3  A    between atoms: N_3  and  C_6
REMARK    4  A    between atoms: C_6  and  N_8
REMARK    5  A    between atoms: C_9  and  C_11
REMARK    6  A    between atoms: C_14  and  N_15
REMARK                            x       y       z     vdW  Elec       q    Type
REMARK                         _______ _______ _______ _____ _____    ______ ____
ROOT
ATOM      1  N   UNL     1      18.542  10.709  38.646  0.00  0.00    +0.000 NA
ATOM      2  C   UNL     1      17.820  10.512  37.462  0.00  0.00    +0.000 C 
ATOM      3  O   UNL     1      18.410   9.858  36.543  0.00  0.00    +0.000 OA
ENDROOT
BRANCH   2   4
ATOM      4  C   UNL     1      16.470  11.025  37.286  0.00  0.00    +0.000 A 
ATOM      5  C   UNL     1      15.447  10.855  38.195  0.00  0.00    +0.000 A 
ATOM      6  C   UNL     1      14.171  11.350  38.021  0.00  0.00    +0.000 A 
ATOM      7  C   UNL     1      13.889  12.061  36.867  0.00  0.00    +0.000 A 
ATOM      8  C   UNL     1      14.895  12.251  35.928  0.00  0.00    +0.000 A 
ATOM      9  C   UNL     1      16.171  11.742  36.130  0.00  0.00    +0.000 A 
BRANCH   7  10
ATOM     10  N   UNL     1      12.620  12.610  36.598  0.00  0.00    +0.000 N 
ATOM     11  O   UNL     1      12.517  13.686  35.962  0.00  0.00    +0.000 OA
ATOM     12  O   UNL     1      11.468  12.010  37.007  0.00  0.00    +0.000 OA
ENDBRANCH   7  10
ENDBRANCH   2   4
BRANCH   1  13
ATOM     13  C   UNL     1      19.862  10.230  38.870  0.00  0.00    +0.000 C 
ATOM     14  S   UNL     1      20.096   8.851  39.694  0.00  0.00    +0.000 S 
BRANCH  13  15
ATOM     15  N   UNL     1      20.933  10.961  38.369  0.00  0.00    +0.000 N 
BRANCH  15  17
ATOM     16  C   UNL     1      22.227  12.992  38.596  0.00  0.00    +0.000 C 
ATOM     17  C   UNL     1      20.877  12.406  38.341  0.00  0.00    +0.000 C 
ENDBRANCH  15  17
BRANCH  15  18
ATOM     18  C   UNL     1      22.118  10.341  37.868  0.00  0.00    +0.000 C 
ATOM     19  C   UNL     1      21.952   9.838  36.479  0.00  0.00    +0.000 C 
ENDBRANCH  15  18
ENDBRANCH  13  15
ENDBRANCH   1  13
TORSDOF 6
ENDMDL
MODEL 6
REMARK VINA RESULT:      -5.3      3.308      4.184
REMARK  Name = 
REMARK  6 active torsions:
REMARK  status: ('A' for Active; 'I' for Inactive)
REMARK    1  A    between atoms: C_2  and  N_3
REMARK    2  A    between atoms: N_3  and  C_4
REMARK    3  A    between atoms: N_3  and  C_6
REMARK    4  A    between atoms: C_6  and  N_8
REMARK    5  A    between atoms: C_9  and  C_11
REMARK    6  A    between atoms: C_14  and  N_15
REMARK                            x       y       z     vdW  Elec       q    Type
REMARK                         _______ _______ _______ _____ _____    ______ ____
ROOT
ATOM      1  N   UNL     1      18.364   8.451  38.794  0.00  0.00    +0.000 NA
ATOM      2  C   UNL     1      18.247   9.764  38.321  0.00  0.00    +0.000 C 
ATOM      3  O   UNL     1      18.581  10.687  39.132  0.00  0.00    +0.000 OA
ENDROOT
BRANCH   2   4
ATOM      4  C   UNL     1      17.770  10.063  36.979  0.00  0.00    +0.000 A 
ATOM      5  C   UNL     1      18.330   9.563  35.823  0.00  0.00    +0.000 A 
ATOM      6  C   UNL     1      17.867   9.849  34.555  0.00  0.00    +0.000 A 
ATOM      7  C   UNL     1      16.773  10.688  34.425  0.00  0.00    +0.000 A 
ATOM      8  C   UNL     1      16.183  11.212  35.568  0.00  0.00    +0.000 A 
ATOM      9  C   UNL     1      16.671  10.906  36.832  0.00  0.00    +0.000 A 
BRANCH   7  10
ATOM     10  N   UNL     1      16.222  11.038  33.177  0.00  0.00    +0.000 N 
ATOM     11  O   UNL     1      16.605  10.460  32.132  0.00  0.00    +0.000 OA
ATOM     12  O   UNL     1      15.268  12.001  33.048  0.00  0.00    +0.000 OA
ENDBRANCH   7  10
ENDBRANCH   2   4
BRANCH   1  13
ATOM     13  C   UNL     1      18.823   8.103  40.093  0.00  0.00    +0.000 C 
ATOM     14  S   UNL     1      20.416   8.030  40.398  0.00  0.00    +0.000 S 
BRANCH  13  15
ATOM     15  N   UNL     1      17.886   7.835  41.085  0.00  0.00    +0.000 N 
BRANCH  15  17
ATOM     16  C   UNL     1      18.018   5.456  41.501  0.00  0.00    +0.000 C 
ATOM     17  C   UNL     1      17.148   6.591  41.071  0.00  0.00    +0.000 C 
ENDBRANCH  15  17
BRANCH  15  18
ATOM     18  C   UNL     1      17.610   8.750  42.146  0.00  0.00    +0.000 C 
ATOM     19  C   UNL     1      16.440   9.620  41.856  0.00  0.00    +0.000 C 
ENDBRANCH  15  18
ENDBRANCH  13  15
ENDBRANCH   1  13
TORSDOF 6
ENDMDL
MODEL 7
REMARK VINA RESULT:      -5.2     21.694     22.831
REMARK  Name = 
REMARK  6 active torsions:
REMARK  status: ('A' for Active; 'I' for Inactive)
REMARK    1  A    between atoms: C_2  and  N_3
REMARK    2  A    between atoms: N_3  and  C_4
REMARK    3  A    between atoms: N_3  and  C_6
REMARK    4  A    between atoms: C_6  and  N_8
REMARK    5  A    between atoms: C_9  and  C_11
REMARK    6  A    between atoms: C_14  and  N_15
REMARK                            x       y       z     vdW  Elec       q    Type
REMARK                         _______ _______ _______ _____ _____    ______ ____
ROOT
ATOM      1  N   UNL     1      22.780  -9.258  23.860  0.00  0.00    +0.000 NA
ATOM      2  C   UNL     1      22.451  -9.020  25.200  0.00  0.00    +0.000 C 
ATOM      3  O   UNL     1      23.166  -9.613  26.071  0.00  0.00    +0.000 OA
ENDROOT
BRANCH   2   4
ATOM      4  C   UNL     1      21.353  -8.145  25.583  0.00  0.00    +0.000 A 
ATOM      5  C   UNL     1      21.276  -6.805  25.266  0.00  0.00    +0.000 A 
ATOM      6  C   UNL     1      20.228  -5.985  25.629  0.00  0.00    +0.000 A 
ATOM      7  C   UNL     1      19.184  -6.531  26.357  0.00  0.00    +0.000 A 
ATOM      8  C   UNL     1      19.227  -7.877  26.695  0.00  0.00    +0.000 A 
ATOM      9  C   UNL     1      20.295  -8.679  26.315  0.00  0.00    +0.000 A 
BRANCH   7  10
ATOM     10  N   UNL     1      18.067  -5.779  26.772  0.00  0.00    +0.000 N 
ATOM     11  O   UNL     1      17.062  -6.352  27.253  0.00  0.00    +0.000 OA
ATOM     12  O   UNL     1      18.028  -4.421  26.672  0.00  0.00    +0.000 OA
ENDBRANCH   7  10
ENDBRANCH   2   4
BRANCH   1  13
ATOM     13  C   UNL     1      23.841 -10.101  23.431  0.00  0.00    +0.000 C 
ATOM     14  S   UNL     1      23.683 -11.714  23.524  0.00  0.00    +0.000 S 
BRANCH  13  15
ATOM     15  N   UNL     1      24.999  -9.517  22.931  0.00  0.00    +0.000 N 
BRANCH  15  17
ATOM     16  C   UNL     1      24.286  -9.376  20.624  0.00  0.00    +0.000 C 
ATOM     17  C   UNL     1      25.393  -9.743  21.557  0.00  0.00    +0.000 C 
ENDBRANCH  15  17
BRANCH  15  18
ATOM     18  C   UNL     1      25.842  -8.681  23.726  0.00  0.00    +0.000 C 
ATOM     19  C   UNL     1      25.733  -7.247  23.353  0.00  0.00    +0.000 C 
ENDBRANCH  15  18
ENDBRANCH  13  15
ENDBRANCH   1  13
TORSDOF 6
ENDMDL
MODEL 8
REMARK VINA RESULT:      -5.2      3.129      4.119
REMARK  Name = 
REMARK  6 active torsions:
REMARK  status: ('A' for Active; 'I' for Inactive)
REMARK    1  A    between atoms: C_2  and  N_3
REMARK    2  A    between atoms: N_3  and  C_4
REMARK    3  A    between atoms: N_3  and  C_6
REMARK    4  A    between atoms: C_6  and  N_8
REMARK    5  A    between atoms: C_9  and  C_11
REMARK    6  A    between atoms: C_14  and  N_15
REMARK                            x       y       z     vdW  Elec       q    Type
REMARK                         _______ _______ _______ _____ _____    ______ ____
ROOT
ATOM      1  N   UNL     1      17.945   9.163  39.080  0.00  0.00    +0.000 NA
ATOM      2  C   UNL     1      18.639   9.483  37.906  0.00  0.00    +0.000 C 
ATOM      3  O   UNL     1      19.902   9.326  37.937  0.00  0.00    +0.000 OA
ENDROOT
BRANCH   2   4
ATOM      4  C   UNL     1      17.960   9.969  36.714  0.00  0.00    +0.000 A 
ATOM      5  C   UNL     1      17.065  11.017  36.700  0.00  0.00    +0.000 A 
ATOM      6  C   UNL     1      16.430  11.473  35.563  0.00  0.00    +0.000 A 
ATOM      7  C   UNL     1      16.702  10.848  34.358  0.00  0.00    +0.000 A 
ATOM      8  C   UNL     1      17.598   9.787  34.335  0.00  0.00    +0.000 A 
ATOM      9  C   UNL     1      18.223   9.349  35.495  0.00  0.00    +0.000 A 
BRANCH   7  10
ATOM     10  N   UNL     1      16.109  11.241  33.142  0.00  0.00    +0.000 N 
ATOM     11  O   UNL     1      16.481  10.727  32.061  0.00  0.00    +0.000 OA
ATOM     12  O   UNL     1      15.123  12.179  33.085  0.00  0.00    +0.000 OA
ENDBRANCH   7  10
ENDBRANCH   2   4
BRANCH   1  13
ATOM     13  C   UNL     1      18.557   8.685  40.270  0.00  0.00    +0.000 C 
ATOM     14  S   UNL     1      19.258   9.728  41.298  0.00  0.00    +0.000 S 
BRANCH  13  15
ATOM     15  N   UNL     1      18.535   7.320  40.531  0.00  0.00    +0.000 N 
BRANCH  15  17
ATOM     16  C   UNL     1      16.685   7.200  42.084  0.00  0.00    +0.000 C 
ATOM     17  C   UNL     1      17.285   6.656  40.829  0.00  0.00    +0.000 C 
ENDBRANCH  15  17
BRANCH  15  18
ATOM     18  C   UNL     1      19.717   6.517  40.517  0.00  0.00    +0.000 C 
ATOM     19  C   UNL     1      19.425   5.082  40.264  0.00  0.00    +0.000 C 
ENDBRANCH  15  18
ENDBRANCH  13  15
ENDBRANCH   1  13
TORSDOF 6
ENDMDL
MODEL 9
REMARK VINA RESULT:      -5.2      4.353      7.721
REMARK  Name = 
REMARK  6 active torsions:
REMARK  status: ('A' for Active; 'I' for Inactive)
REMARK    1  A    between atoms: C_2  and  N_3
REMARK    2  A    between atoms: N_3  and  C_4
REMARK    3  A    between atoms: N_3  and  C_6
REMARK    4  A    between atoms: C_6  and  N_8
REMARK    5  A    between atoms: C_9  and  C_11
REMARK    6  A    between atoms: C_14  and  N_15
REMARK                            x       y       z     vdW  Elec       q    Type
REMARK                         _______ _______ _______ _____ _____    ______ ____
ROOT
ATOM      1  N   UNL     1      16.470  10.512  37.650  0.00  0.00    +0.000 NA
ATOM      2  C   UNL     1      17.466  10.218  38.590  0.00  0.00    +0.000 C 
ATOM      3  O   UNL     1      18.598  10.768  38.404  0.00  0.00    +0.000 OA
ENDROOT
BRANCH   2   4
ATOM      4  C   UNL     1      17.224   9.333  39.720  0.00  0.00    +0.000 A 
ATOM      5  C   UNL     1      18.015   8.253  40.047  0.00  0.00    +0.000 A 
ATOM      6  C   UNL     1      17.780   7.423  41.124  0.00  0.00    +0.000 A 
ATOM      7  C   UNL     1      16.685   7.682  41.931  0.00  0.00    +0.000 A 
ATOM      8  C   UNL     1      15.865   8.761  41.631  0.00  0.00    +0.000 A 
ATOM      9  C   UNL     1      16.126   9.580  40.541  0.00  0.00    +0.000 A 
BRANCH   7  10
ATOM     10  N   UNL     1      16.362   6.897  43.056  0.00  0.00    +0.000 N 
ATOM     11  O   UNL     1      15.458   7.261  43.843  0.00  0.00    +0.000 OA
ATOM     12  O   UNL     1      17.004   5.728  43.334  0.00  0.00    +0.000 OA
ENDBRANCH   7  10
ENDBRANCH   2   4
BRANCH   1  13
ATOM     13  C   UNL     1      16.651  11.368  36.529  0.00  0.00    +0.000 C 
ATOM     14  S   UNL     1      16.661  12.979  36.732  0.00  0.00    +0.000 S 
BRANCH  13  15
ATOM     15  N   UNL     1      16.823  10.798  35.273  0.00  0.00    +0.000 N 
BRANCH  15  17
ATOM     16  C   UNL     1      17.835   8.601  35.214  0.00  0.00    +0.000 C 
ATOM     17  C   UNL     1      18.030  10.062  34.968  0.00  0.00    +0.000 C 
ENDBRANCH  15  17
BRANCH  15  18
ATOM     18  C   UNL     1      15.841  10.903  34.241  0.00  0.00    +0.000 C 
ATOM     19  C   UNL     1      16.402  11.445  32.976  0.00  0.00    +0.000 C 
ENDBRANCH  15  18
ENDBRANCH  13  15
ENDBRANCH   1  13
TORSDOF 6
ENDMDL
MODEL 10
REMARK VINA RESULT:      -5.1     18.911     21.402
REMARK  Name = 
REMARK  6 active torsions:
REMARK  status: ('A' for Active; 'I' for Inactive)
REMARK    1  A    between atoms: C_2  and  N_3
REMARK    2  A    between atoms: N_3  and  C_4
REMARK    3  A    between atoms: N_3  and  C_6
REMARK    4  A    between atoms: C_6  and  N_8
REMARK    5  A    between atoms: C_9  and  C_11
REMARK    6  A    between atoms: C_14  and  N_15
REMARK                            x       y       z     vdW  Elec       q    Type
REMARK                         _______ _______ _______ _____ _____    ______ ____
ROOT
ATOM      1  N   UNL     1      33.905  -3.822  33.009  0.00  0.00    +0.000 NA
ATOM      2  C   UNL     1      33.118  -3.031  33.856  0.00  0.00    +0.000 C 
ATOM      3  O   UNL     1      32.304  -3.652  34.613  0.00  0.00    +0.000 OA
ENDROOT
BRANCH   2   4
ATOM      4  C   UNL     1      33.220  -1.580  33.873  0.00  0.00    +0.000 A 
ATOM      5  C   UNL     1      32.565  -0.763  34.771  0.00  0.00    +0.000 A 
ATOM      6  C   UNL     1      32.672   0.613  34.781  0.00  0.00    +0.000 A 
ATOM      7  C   UNL     1      33.484   1.219  33.838  0.00  0.00    +0.000 A 
ATOM      8  C   UNL     1      34.158   0.428  32.917  0.00  0.00    +0.000 A 
ATOM      9  C   UNL     1      34.032  -0.954  32.930  0.00  0.00    +0.000 A 
BRANCH   7  10
ATOM     10  N   UNL     1      33.664   2.615  33.769  0.00  0.00    +0.000 N 
ATOM     11  O   UNL     1      33.598   3.208  32.666  0.00  0.00    +0.000 OA
ATOM     12  O   UNL     1      33.911   3.371  34.874  0.00  0.00    +0.000 OA
ENDBRANCH   7  10
ENDBRANCH   2   4
BRANCH   1  13
ATOM     13  C   UNL     1      33.847  -5.241  32.952  0.00  0.00    +0.000 C 
ATOM     14  S   UNL     1      34.756  -6.133  33.959  0.00  0.00    +0.000 S 
BRANCH  13  15
ATOM     15  N   UNL     1      32.998  -5.839  32.026  0.00  0.00    +0.000 N 
BRANCH  15  17
ATOM     16  C   UNL     1      30.714  -6.509  32.453  0.00  0.00    +0.000 C 
ATOM     17  C   UNL     1      32.145  -6.936  32.425  0.00  0.00    +0.000 C 
ENDBRANCH  15  17
BRANCH  15  18
ATOM     18  C   UNL     1      32.923  -5.410  30.666  0.00  0.00    +0.000 C 
ATOM     19  C   UNL     1      34.153  -5.737  29.898  0.00  0.00    +0.000 C 
ENDBRANCH  15  18
ENDBRANCH  13  15
ENDBRANCH   1  13
TORSDOF 6
ENDMDL
