MODEL 1
REMARK VINA RESULT:      -6.3      0.000      0.000
REMARK  Name = 
REMARK  3 active torsions:
REMARK  status: ('A' for Active; 'I' for Inactive)
REMARK    1  A    between atoms: O_2  and  C_3
REMARK    2  A    between atoms: C_8  and  O_9
REMARK    3  A    between atoms: C_11  and  C_12
REMARK                            x       y       z     vdW  Elec       q    Type
REMARK                         _______ _______ _______ _____ _____    ______ ____
ROOT
ATOM      1  C   UNL     1      21.783  -8.369  24.891  0.00  0.00    +0.000 A 
ATOM      2  C   UNL     1      21.499  -7.050  25.160  0.00  0.00    +0.000 A 
ATOM      3  C   UNL     1      20.209  -6.708  25.632  0.00  0.00    +0.000 A 
ATOM      4  C   UNL     1      19.285  -7.640  25.809  0.00  0.00    +0.000 A 
ATOM      5  C   UNL     1      19.560  -8.970  25.544  0.00  0.00    +0.000 A 
ATOM      6  C   UNL     1      20.803  -9.316  25.089  0.00  0.00    +0.000 A 
ATOM      7  C   UNL     1      17.814  -7.290  26.206  0.00  0.00    +0.000 C 
ATOM      8  C   UNL     1      18.101  -6.206  27.369  0.00  0.00    +0.000 C 
ATOM      9  C   UNL     1      18.707  -5.073  26.587  0.00  0.00    +0.000 C 
ATOM     10  O   UNL     1      18.133  -4.023  26.467  0.00  0.00    +0.000 OA
ATOM     11  N   UNL     1      19.997  -5.326  26.004  0.00  0.00    +0.000 NA
ENDROOT
BRANCH   7  12
ATOM     12  C   UNL     1      17.482  -8.510  27.121  0.00  0.00    +0.000 A 
ATOM     13  C   UNL     1      18.184  -8.547  28.269  0.00  0.00    +0.000 A 
ATOM     14  C   UNL     1      17.984  -9.600  29.173  0.00  0.00    +0.000 A 
ATOM     15  C   UNL     1      17.072 -10.576  28.868  0.00  0.00    +0.000 A 
ATOM     16  C   UNL     1      16.378 -10.495  27.684  0.00  0.00    +0.000 A 
ATOM     17  C   UNL     1      16.589  -9.443  26.796  0.00  0.00    +0.000 A 
ATOM     18  C   UNL     1      15.839  -9.361  25.522  0.00  0.00    +0.000 C 
ENDBRANCH   7  12
BRANCH   1  20
ATOM     19  C   UNL     1      24.023  -7.948  23.946  0.00  0.00    +0.000 C 
ATOM     20  O   UNL     1      23.015  -8.803  24.427  0.00  0.00    +0.000 OA
ENDBRANCH   1  20
BRANCH   6  21
ATOM     21  O   UNL     1      21.138 -10.662  24.801  0.00  0.00    +0.000 OA
ATOM     22  C   UNL     1      20.749 -11.665  25.742  0.00  0.00    +0.000 C 
ENDBRANCH   6  21
TORSDOF 3
ENDMDL
MODEL 2
REMARK VINA RESULT:      -6.2     32.254     33.623
REMARK  Name = 
REMARK  3 active torsions:
REMARK  status: ('A' for Active; 'I' for Inactive)
REMARK    1  A    between atoms: O_2  and  C_3
REMARK    2  A    between atoms: C_8  and  O_9
REMARK    3  A    between atoms: C_11  and  C_12
REMARK                            x       y       z     vdW  Elec       q    Type
REMARK                         _______ _______ _______ _____ _____    ______ ____
ROOT
ATOM      1  C   UNL     1      30.053  22.308  26.438  0.00  0.00    +0.000 A 
ATOM      2  C   UNL     1      30.608  22.690  25.238  0.00  0.00    +0.000 A 
ATOM      3  C   UNL     1      29.782  23.300  24.264  0.00  0.00    +0.000 A 
ATOM      4  C   UNL     1      28.494  23.498  24.496  0.00  0.00    +0.000 A 
ATOM      5  C   UNL     1      27.926  23.121  25.701  0.00  0.00    +0.000 A 
ATOM      6  C   UNL     1      28.711  22.532  26.654  0.00  0.00    +0.000 A 
ATOM      7  C   UNL     1      27.524  24.051  23.402  0.00  0.00    +0.000 C 
ATOM      8  C   UNL     1      28.434  25.253  22.821  0.00  0.00    +0.000 C 
ATOM      9  C   UNL     1      29.562  24.496  22.175  0.00  0.00    +0.000 C 
ATOM     10  O   UNL     1      29.710  24.500  20.982  0.00  0.00    +0.000 OA
ATOM     11  N   UNL     1      30.435  23.781  23.066  0.00  0.00    +0.000 NA
ENDROOT
BRANCH   7  12
ATOM     12  C   UNL     1      26.571  24.910  24.293  0.00  0.00    +0.000 A 
ATOM     13  C   UNL     1      27.126  26.042  24.764  0.00  0.00    +0.000 A 
ATOM     14  C   UNL     1      26.375  26.894  25.584  0.00  0.00    +0.000 A 
ATOM     15  C   UNL     1      25.082  26.557  25.891  0.00  0.00    +0.000 A 
ATOM     16  C   UNL     1      24.559  25.391  25.386  0.00  0.00    +0.000 A 
ATOM     17  C   UNL     1      25.319  24.553  24.572  0.00  0.00    +0.000 A 
ATOM     18  C   UNL     1      24.749  23.298  24.031  0.00  0.00    +0.000 C 
ENDBRANCH   7  12
BRANCH   1  20
ATOM     19  C   UNL     1      31.633  22.395  28.331  0.00  0.00    +0.000 C 
ATOM     20  O   UNL     1      30.778  21.705  27.454  0.00  0.00    +0.000 OA
ENDBRANCH   1  20
BRANCH   6  21
ATOM     21  O   UNL     1      28.181  22.125  27.902  0.00  0.00    +0.000 OA
ATOM     22  C   UNL     1      27.633  23.131  28.757  0.00  0.00    +0.000 C 
ENDBRANCH   6  21
TORSDOF 3
ENDMDL
MODEL 3
REMARK VINA RESULT:      -6.0     32.412     34.187
REMARK  Name = 
REMARK  3 active torsions:
REMARK  status: ('A' for Active; 'I' for Inactive)
REMARK    1  A    between atoms: O_2  and  C_3
REMARK    2  A    between atoms: C_8  and  O_9
REMARK    3  A    between atoms: C_11  and  C_12
REMARK                            x       y       z     vdW  Elec       q    Type
REMARK                         _______ _______ _______ _____ _____    ______ ____
ROOT
ATOM      1  C   UNL     1      26.487  24.349  27.928  0.00  0.00    +0.000 A 
ATOM      2  C   UNL     1      25.778  23.800  26.884  0.00  0.00    +0.000 A 
ATOM      3  C   UNL     1      26.321  23.864  25.578  0.00  0.00    +0.000 A 
ATOM      4  C   UNL     1      27.490  24.446  25.359  0.00  0.00    +0.000 A 
ATOM      5  C   UNL     1      28.213  24.999  26.402  0.00  0.00    +0.000 A 
ATOM      6  C   UNL     1      27.702  24.944  27.670  0.00  0.00    +0.000 A 
ATOM      7  C   UNL     1      28.064  24.649  23.919  0.00  0.00    +0.000 C 
ATOM      8  C   UNL     1      27.761  23.187  23.302  0.00  0.00    +0.000 C 
ATOM      9  C   UNL     1      26.257  23.179  23.261  0.00  0.00    +0.000 C 
ATOM     10  O   UNL     1      25.664  23.173  22.215  0.00  0.00    +0.000 OA
ATOM     11  N   UNL     1      25.591  23.178  24.535  0.00  0.00    +0.000 NA
ENDROOT
BRANCH   7  12
ATOM     12  C   UNL     1      29.586  24.455  24.204  0.00  0.00    +0.000 A 
ATOM     13  C   UNL     1      29.956  23.174  24.388  0.00  0.00    +0.000 A 
ATOM     14  C   UNL     1      31.296  22.869  24.660  0.00  0.00    +0.000 A 
ATOM     15  C   UNL     1      32.210  23.888  24.734  0.00  0.00    +0.000 A 
ATOM     16  C   UNL     1      31.786  25.180  24.538  0.00  0.00    +0.000 A 
ATOM     17  C   UNL     1      30.449  25.467  24.269  0.00  0.00    +0.000 A 
ATOM     18  C   UNL     1      29.999  26.862  24.059  0.00  0.00    +0.000 C 
ENDBRANCH   7  12
BRANCH   1  20
ATOM     19  C   UNL     1      26.204  23.252  30.119  0.00  0.00    +0.000 C 
ATOM     20  O   UNL     1      26.040  24.337  29.240  0.00  0.00    +0.000 OA
ENDBRANCH   1  20
BRANCH   6  21
ATOM     21  O   UNL     1      28.398  25.494  28.774  0.00  0.00    +0.000 OA
ATOM     22  C   UNL     1      29.539  24.788  29.266  0.00  0.00    +0.000 C 
ENDBRANCH   6  21
TORSDOF 3
ENDMDL
MODEL 4
REMARK VINA RESULT:      -5.9     15.912     18.479
REMARK  Name = 
REMARK  3 active torsions:
REMARK  status: ('A' for Active; 'I' for Inactive)
REMARK    1  A    between atoms: O_2  and  C_3
REMARK    2  A    between atoms: C_8  and  O_9
REMARK    3  A    between atoms: C_11  and  C_12
REMARK                            x       y       z     vdW  Elec       q    Type
REMARK                         _______ _______ _______ _____ _____    ______ ____
ROOT
ATOM      1  C   UNL     1      26.846   6.582  13.624  0.00  0.00    +0.000 A 
ATOM      2  C   UNL     1      27.553   7.189  14.637  0.00  0.00    +0.000 A 
ATOM      3  C   UNL     1      27.283   6.824  15.977  0.00  0.00    +0.000 A 
ATOM      4  C   UNL     1      26.362   5.916  16.259  0.00  0.00    +0.000 A 
ATOM      5  C   UNL     1      25.646   5.297  15.249  0.00  0.00    +0.000 A 
ATOM      6  C   UNL     1      25.897   5.637  13.948  0.00  0.00    +0.000 A 
ATOM      7  C   UNL     1      25.946   5.578  17.727  0.00  0.00    +0.000 C 
ATOM      8  C   UNL     1      27.409   5.480  18.404  0.00  0.00    +0.000 C 
ATOM      9  C   UNL     1      27.880   6.906  18.318  0.00  0.00    +0.000 C 
ATOM     10  O   UNL     1      28.036   7.570  19.308  0.00  0.00    +0.000 OA
ATOM     11  N   UNL     1      28.129   7.410  16.994  0.00  0.00    +0.000 NA
ENDROOT
BRANCH   7  12
ATOM     12  C   UNL     1      25.668   4.048  17.585  0.00  0.00    +0.000 A 
ATOM     13  C   UNL     1      26.682   3.350  17.041  0.00  0.00    +0.000 A 
ATOM     14  C   UNL     1      26.552   1.968  16.851  0.00  0.00    +0.000 A 
ATOM     15  C   UNL     1      25.388   1.350  17.227  0.00  0.00    +0.000 A 
ATOM     16  C   UNL     1      24.380   2.104  17.779  0.00  0.00    +0.000 A 
ATOM     17  C   UNL     1      24.525   3.478  17.960  0.00  0.00    +0.000 A 
ATOM     18  C   UNL     1      23.435   4.284  18.555  0.00  0.00    +0.000 C 
ENDBRANCH   7  12
BRANCH   1  20
ATOM     19  C   UNL     1      28.299   7.022  11.680  0.00  0.00    +0.000 C 
ATOM     20  O   UNL     1      27.037   6.871  12.283  0.00  0.00    +0.000 OA
ENDBRANCH   1  20
BRANCH   6  21
ATOM     21  O   UNL     1      25.193   5.036  12.876  0.00  0.00    +0.000 OA
ATOM     22  C   UNL     1      23.923   4.444  13.156  0.00  0.00    +0.000 C 
ENDBRANCH   6  21
TORSDOF 3
ENDMDL
MODEL 5
REMARK VINA RESULT:      -5.8     31.645     34.102
REMARK  Name = 
REMARK  3 active torsions:
REMARK  status: ('A' for Active; 'I' for Inactive)
REMARK    1  A    between atoms: O_2  and  C_3
REMARK    2  A    between atoms: C_8  and  O_9
REMARK    3  A    between atoms: C_11  and  C_12
REMARK                            x       y       z     vdW  Elec       q    Type
REMARK                         _______ _______ _______ _____ _____    ______ ____
ROOT
ATOM      1  C   UNL     1      26.649  26.932  29.248  0.00  0.00    +0.000 A 
ATOM      2  C   UNL     1      26.325  25.978  30.185  0.00  0.00    +0.000 A 
ATOM      3  C   UNL     1      26.384  24.612  29.822  0.00  0.00    +0.000 A 
ATOM      4  C   UNL     1      26.741  24.251  28.598  0.00  0.00    +0.000 A 
ATOM      5  C   UNL     1      27.072  25.202  27.649  0.00  0.00    +0.000 A 
ATOM      6  C   UNL     1      27.021  26.527  27.985  0.00  0.00    +0.000 A 
ATOM      7  C   UNL     1      26.697  22.764  28.121  0.00  0.00    +0.000 C 
ATOM      8  C   UNL     1      27.375  22.051  29.403  0.00  0.00    +0.000 C 
ATOM      9  C   UNL     1      26.335  22.282  30.465  0.00  0.00    +0.000 C 
ATOM     10  O   UNL     1      25.713  21.367  30.935  0.00  0.00    +0.000 OA
ATOM     11  N   UNL     1      26.141  23.647  30.872  0.00  0.00    +0.000 NA
ENDROOT
BRANCH   7  12
ATOM     12  C   UNL     1      27.940  22.745  27.177  0.00  0.00    +0.000 A 
ATOM     13  C   UNL     1      29.122  22.707  27.821  0.00  0.00    +0.000 A 
ATOM     14  C   UNL     1      30.315  22.696  27.084  0.00  0.00    +0.000 A 
ATOM     15  C   UNL     1      30.253  22.723  25.716  0.00  0.00    +0.000 A 
ATOM     16  C   UNL     1      29.023  22.760  25.103  0.00  0.00    +0.000 A 
ATOM     17  C   UNL     1      27.847  22.772  25.850  0.00  0.00    +0.000 A 
ATOM     18  C   UNL     1      26.525  22.812  25.184  0.00  0.00    +0.000 C 
ENDBRANCH   7  12
BRANCH   1  20
ATOM     19  C   UNL     1      25.654  28.925  30.309  0.00  0.00    +0.000 C 
ATOM     20  O   UNL     1      26.622  28.293  29.507  0.00  0.00    +0.000 OA
ENDBRANCH   1  20
BRANCH   6  21
ATOM     21  O   UNL     1      27.348  27.541  27.052  0.00  0.00    +0.000 OA
ATOM     22  C   UNL     1      26.574  27.624  25.854  0.00  0.00    +0.000 C 
ENDBRANCH   6  21
TORSDOF 3
ENDMDL
MODEL 6
REMARK VINA RESULT:      -5.7     21.007     22.764
REMARK  Name = 
REMARK  3 active torsions:
REMARK  status: ('A' for Active; 'I' for Inactive)
REMARK    1  A    between atoms: O_2  and  C_3
REMARK    2  A    between atoms: C_8  and  O_9
REMARK    3  A    between atoms: C_11  and  C_12
REMARK                            x       y       z     vdW  Elec       q    Type
REMARK                         _______ _______ _______ _____ _____    ______ ____
ROOT
ATOM      1  C   UNL     1      18.364   8.136  40.968  0.00  0.00    +0.000 A 
ATOM      2  C   UNL     1      17.330   8.683  40.242  0.00  0.00    +0.000 A 
ATOM      3  C   UNL     1      17.601   9.764  39.370  0.00  0.00    +0.000 A 
ATOM      4  C   UNL     1      18.828  10.249  39.254  0.00  0.00    +0.000 A 
ATOM      5  C   UNL     1      19.876   9.705  39.977  0.00  0.00    +0.000 A 
ATOM      6  C   UNL     1      19.631   8.658  40.823  0.00  0.00    +0.000 A 
ATOM      7  C   UNL     1      19.145  11.520  38.401  0.00  0.00    +0.000 C 
ATOM      8  C   UNL     1      18.285  11.175  37.078  0.00  0.00    +0.000 C 
ATOM      9  C   UNL     1      16.877  11.246  37.604  0.00  0.00    +0.000 C 
ATOM     10  O   UNL     1      16.121  12.107  37.241  0.00  0.00    +0.000 OA
ATOM     11  N   UNL     1      16.505  10.230  38.550  0.00  0.00    +0.000 NA
ENDROOT
BRANCH   7  12
ATOM     12  C   UNL     1      20.555  11.133  37.852  0.00  0.00    +0.000 A 
ATOM     13  C   UNL     1      20.556  10.060  37.038  0.00  0.00    +0.000 A 
ATOM     14  C   UNL     1      21.762   9.607  36.487  0.00  0.00    +0.000 A 
ATOM     15  C   UNL     1      22.923  10.269  36.789  0.00  0.00    +0.000 A 
ATOM     16  C   UNL     1      22.872  11.360  37.624  0.00  0.00    +0.000 A 
ATOM     17  C   UNL     1      21.665  11.798  38.164  0.00  0.00    +0.000 A 
ATOM     18  C   UNL     1      21.617  12.974  39.063  0.00  0.00    +0.000 C 
ENDBRANCH   7  12
BRANCH   1  20
ATOM     19  C   UNL     1      17.651   5.833  41.489  0.00  0.00    +0.000 C 
ATOM     20  O   UNL     1      18.200   7.077  41.847  0.00  0.00    +0.000 OA
ENDBRANCH   1  20
BRANCH   6  21
ATOM     21  O   UNL     1      20.665   8.065  41.587  0.00  0.00    +0.000 OA
ATOM     22  C   UNL     1      21.608   7.234  40.907  0.00  0.00    +0.000 C 
ENDBRANCH   6  21
TORSDOF 3
ENDMDL
MODEL 7
REMARK VINA RESULT:      -5.6     21.250     23.706
REMARK  Name = 
REMARK  3 active torsions:
REMARK  status: ('A' for Active; 'I' for Inactive)
REMARK    1  A    between atoms: O_2  and  C_3
REMARK    2  A    between atoms: C_8  and  O_9
REMARK    3  A    between atoms: C_11  and  C_12
REMARK                            x       y       z     vdW  Elec       q    Type
REMARK                         _______ _______ _______ _____ _____    ______ ____
ROOT
ATOM      1  C   UNL     1      21.419  14.154  38.924  0.00  0.00    +0.000 A 
ATOM      2  C   UNL     1      20.191  13.587  38.668  0.00  0.00    +0.000 A 
ATOM      3  C   UNL     1      20.138  12.266  38.164  0.00  0.00    +0.000 A 
ATOM      4  C   UNL     1      21.250  11.582  37.937  0.00  0.00    +0.000 A 
ATOM      5  C   UNL     1      22.489  12.141  38.194  0.00  0.00    +0.000 A 
ATOM      6  C   UNL     1      22.558  13.417  38.683  0.00  0.00    +0.000 A 
ATOM      7  C   UNL     1      21.238  10.171  37.265  0.00  0.00    +0.000 C 
ATOM      8  C   UNL     1      20.027   9.491  38.089  0.00  0.00    +0.000 C 
ATOM      9  C   UNL     1      18.848  10.297  37.616  0.00  0.00    +0.000 C 
ATOM     10  O   UNL     1      17.983   9.798  36.946  0.00  0.00    +0.000 OA
ATOM     11  N   UNL     1      18.825  11.678  38.016  0.00  0.00    +0.000 NA
ENDROOT
BRANCH   7  12
ATOM     12  C   UNL     1      22.425   9.499  38.026  0.00  0.00    +0.000 A 
ATOM     13  C   UNL     1      22.165   9.217  39.316  0.00  0.00    +0.000 A 
ATOM     14  C   UNL     1      23.154   8.621  40.110  0.00  0.00    +0.000 A 
ATOM     15  C   UNL     1      24.372   8.332  39.553  0.00  0.00    +0.000 A 
ATOM     16  C   UNL     1      24.591   8.637  38.230  0.00  0.00    +0.000 A 
ATOM     17  C   UNL     1      23.597   9.232  37.455  0.00  0.00    +0.000 A 
ATOM     18  C   UNL     1      23.839   9.558  36.031  0.00  0.00    +0.000 C 
ENDBRANCH   7  12
BRANCH   1  20
ATOM     19  C   UNL     1      21.272  16.606  38.692  0.00  0.00    +0.000 C 
ATOM     20  O   UNL     1      21.575  15.440  39.417  0.00  0.00    +0.000 OA
ENDBRANCH   1  20
BRANCH   6  21
ATOM     21  O   UNL     1      23.799  14.039  38.962  0.00  0.00    +0.000 OA
ATOM     22  C   UNL     1      24.833  13.940  37.981  0.00  0.00    +0.000 C 
ENDBRANCH   6  21
TORSDOF 3
ENDMDL
MODEL 8
REMARK VINA RESULT:      -5.6     31.516     33.323
REMARK  Name = 
REMARK  3 active torsions:
REMARK  status: ('A' for Active; 'I' for Inactive)
REMARK    1  A    between atoms: O_2  and  C_3
REMARK    2  A    between atoms: C_8  and  O_9
REMARK    3  A    between atoms: C_11  and  C_12
REMARK                            x       y       z     vdW  Elec       q    Type
REMARK                         _______ _______ _______ _____ _____    ______ ____
ROOT
ATOM      1  C   UNL     1      28.000  23.435  24.469  0.00  0.00    +0.000 A 
ATOM      2  C   UNL     1      26.837  24.168  24.529  0.00  0.00    +0.000 A 
ATOM      3  C   UNL     1      26.187  24.324  25.777  0.00  0.00    +0.000 A 
ATOM      4  C   UNL     1      26.685  23.771  26.873  0.00  0.00    +0.000 A 
ATOM      5  C   UNL     1      27.855  23.034  26.825  0.00  0.00    +0.000 A 
ATOM      6  C   UNL     1      28.496  22.876  25.627  0.00  0.00    +0.000 A 
ATOM      7  C   UNL     1      25.934  23.813  28.243  0.00  0.00    +0.000 C 
ATOM      8  C   UNL     1      25.484  25.364  28.255  0.00  0.00    +0.000 C 
ATOM      9  C   UNL     1      24.494  25.402  27.122  0.00  0.00    +0.000 C 
ATOM     10  O   UNL     1      23.325  25.599  27.326  0.00  0.00    +0.000 OA
ATOM     11  N   UNL     1      25.031  25.193  25.806  0.00  0.00    +0.000 NA
ENDROOT
BRANCH   7  12
ATOM     12  C   UNL     1      27.149  23.930  29.215  0.00  0.00    +0.000 A 
ATOM     13  C   UNL     1      27.849  25.073  29.090  0.00  0.00    +0.000 A 
ATOM     14  C   UNL     1      28.970  25.295  29.901  0.00  0.00    +0.000 A 
ATOM     15  C   UNL     1      29.333  24.337  30.812  0.00  0.00    +0.000 A 
ATOM     16  C   UNL     1      28.588  23.186  30.904  0.00  0.00    +0.000 A 
ATOM     17  C   UNL     1      27.476  22.981  30.090  0.00  0.00    +0.000 A 
ATOM     18  C   UNL     1      26.677  21.739  30.194  0.00  0.00    +0.000 C 
ENDBRANCH   7  12
BRANCH   1  20
ATOM     19  C   UNL     1      29.376  24.240  22.587  0.00  0.00    +0.000 C 
ATOM     20  O   UNL     1      28.708  23.227  23.297  0.00  0.00    +0.000 OA
ENDBRANCH   1  20
BRANCH   6  21
ATOM     21  O   UNL     1      29.696  22.131  25.520  0.00  0.00    +0.000 OA
ATOM     22  C   UNL     1      30.906  22.742  25.974  0.00  0.00    +0.000 C 
ENDBRANCH   6  21
TORSDOF 3
ENDMDL
MODEL 9
REMARK VINA RESULT:      -5.5     32.565     34.586
REMARK  Name = 
REMARK  3 active torsions:
REMARK  status: ('A' for Active; 'I' for Inactive)
REMARK    1  A    between atoms: O_2  and  C_3
REMARK    2  A    between atoms: C_8  and  O_9
REMARK    3  A    between atoms: C_11  and  C_12
REMARK                            x       y       z     vdW  Elec       q    Type
REMARK                         _______ _______ _______ _____ _____    ______ ____
ROOT
ATOM      1  C   UNL     1      25.838  25.519  25.627  0.00  0.00    +0.000 A 
ATOM      2  C   UNL     1      26.100  25.223  24.308  0.00  0.00    +0.000 A 
ATOM      3  C   UNL     1      27.427  24.909  23.927  0.00  0.00    +0.000 A 
ATOM      4  C   UNL     1      28.404  24.902  24.820  0.00  0.00    +0.000 A 
ATOM      5  C   UNL     1      28.151  25.195  26.149  0.00  0.00    +0.000 A 
ATOM      6  C   UNL     1      26.874  25.499  26.534  0.00  0.00    +0.000 A 
ATOM      7  C   UNL     1      29.899  24.685  24.419  0.00  0.00    +0.000 C 
ATOM      8  C   UNL     1      29.726  23.442  23.403  0.00  0.00    +0.000 C 
ATOM      9  C   UNL     1      28.974  24.079  22.266  0.00  0.00    +0.000 C 
ATOM     10  O   UNL     1      29.484  24.220  21.186  0.00  0.00    +0.000 OA
ATOM     11  N   UNL     1      27.630  24.499  22.555  0.00  0.00    +0.000 NA
ENDROOT
BRANCH   7  12
ATOM     12  C   UNL     1      30.400  23.884  25.662  0.00  0.00    +0.000 A 
ATOM     13  C   UNL     1      29.835  22.671  25.802  0.00  0.00    +0.000 A 
ATOM     14  C   UNL     1      30.195  21.857  26.885  0.00  0.00    +0.000 A 
ATOM     15  C   UNL     1      31.122  22.316  27.784  0.00  0.00    +0.000 A 
ATOM     16  C   UNL     1      31.672  23.562  27.599  0.00  0.00    +0.000 A 
ATOM     17  C   UNL     1      31.303  24.359  26.518  0.00  0.00    +0.000 A 
ATOM     18  C   UNL     1      31.900  25.700  26.324  0.00  0.00    +0.000 C 
ENDBRANCH   7  12
BRANCH   1  20
ATOM     19  C   UNL     1      23.592  26.497  25.337  0.00  0.00    +0.000 C 
ATOM     20  O   UNL     1      24.574  25.838  26.097  0.00  0.00    +0.000 OA
ENDBRANCH   1  20
BRANCH   6  21
ATOM     21  O   UNL     1      26.559  25.808  27.880  0.00  0.00    +0.000 OA
ATOM     22  C   UNL     1      27.019  27.054  28.406  0.00  0.00    +0.000 C 
ENDBRANCH   6  21
TORSDOF 3
ENDMDL
MODEL 10
REMARK VINA RESULT:      -5.5     32.174     33.801
REMARK  Name = 
REMARK  3 active torsions:
REMARK  status: ('A' for Active; 'I' for Inactive)
REMARK    1  A    between atoms: O_2  and  C_3
REMARK    2  A    between atoms: C_8  and  O_9
REMARK    3  A    between atoms: C_11  and  C_12
REMARK                            x       y       z     vdW  Elec       q    Type
REMARK                         _______ _______ _______ _____ _____    ______ ____
ROOT
ATOM      1  C   UNL     1      29.754  23.155  24.421  0.00  0.00    +0.000 A 
ATOM      2  C   UNL     1      28.627  22.981  25.192  0.00  0.00    +0.000 A 
ATOM      3  C   UNL     1      28.774  22.767  26.583  0.00  0.00    +0.000 A 
ATOM      4  C   UNL     1      29.975  22.728  27.139  0.00  0.00    +0.000 A 
ATOM      5  C   UNL     1      31.115  22.904  26.374  0.00  0.00    +0.000 A 
ATOM      6  C   UNL     1      30.990  23.114  25.027  0.00  0.00    +0.000 A 
ATOM      7  C   UNL     1      30.186  22.369  28.645  0.00  0.00    +0.000 C 
ATOM      8  C   UNL     1      29.022  23.275  29.302  0.00  0.00    +0.000 C 
ATOM      9  C   UNL     1      27.781  22.603  28.780  0.00  0.00    +0.000 C 
ATOM     10  O   UNL     1      27.031  22.023  29.520  0.00  0.00    +0.000 OA
ATOM     11  N   UNL     1      27.558  22.700  27.364  0.00  0.00    +0.000 NA
ENDROOT
BRANCH   7  12
ATOM     12  C   UNL     1      31.398  23.295  28.978  0.00  0.00    +0.000 A 
ATOM     13  C   UNL     1      31.122  24.611  28.916  0.00  0.00    +0.000 A 
ATOM     14  C   UNL     1      32.130  25.546  29.185  0.00  0.00    +0.000 A 
ATOM     15  C   UNL     1      33.385  25.100  29.508  0.00  0.00    +0.000 A 
ATOM     16  C   UNL     1      33.620  23.746  29.559  0.00  0.00    +0.000 A 
ATOM     17  C   UNL     1      32.606  22.829  29.288  0.00  0.00    +0.000 A 
ATOM     18  C   UNL     1      32.865  21.372  29.345  0.00  0.00    +0.000 C 
ENDBRANCH   7  12
BRANCH   1  20
ATOM     19  C   UNL     1      28.904  24.338  22.429  0.00  0.00    +0.000 C 
ATOM     20  O   UNL     1      29.713  23.371  23.052  0.00  0.00    +0.000 OA
ENDBRANCH   1  20
BRANCH   6  21
ATOM     21  O   UNL     1      32.122  23.299  24.197  0.00  0.00    +0.000 OA
ATOM     22  C   UNL     1      33.143  24.192  24.646  0.00  0.00    +0.000 C 
ENDBRANCH   6  21
TORSDOF 3
ENDMDL
