MODEL 1
REMARK VINA RESULT:      -7.4      0.000      0.000
REMARK  Name = 
REMARK  3 active torsions:
REMARK  status: ('A' for Active; 'I' for Inactive)
REMARK    1  A    between atoms: C_2  and  C_13
REMARK    2  A    between atoms: N_3  and  C_4
REMARK    3  A    between atoms: C_8  and  N_9
REMARK                            x       y       z     vdW  Elec       q    Type
REMARK                         _______ _______ _______ _____ _____    ______ ____
ROOT
ATOM      1  O   UNL     1      17.245   9.293  34.964  0.00  0.00    +0.000 OA
ATOM      2  C   UNL     1      16.790  10.717  35.086  0.00  0.00    +0.000 C 
ATOM      3  N   UNL     1      17.020  11.471  36.362  0.00  0.00    +0.000 NA
ENDROOT
BRANCH   2   4
ATOM      4  C   UNL     1      16.104  11.388  33.933  0.00  0.00    +0.000 C 
ATOM      5  C   UNL     1      15.961  11.610  32.456  0.00  0.00    +0.000 C 
ATOM      6  C   UNL     1      15.589  12.026  31.065  0.00  0.00    +0.000 C 
ATOM      7  C   UNL     1      14.657  12.887  30.263  0.00  0.00    +0.000 C 
ATOM      8  C   UNL     1      13.752  13.605  31.221  0.00  0.00    +0.000 C 
ATOM      9  C   UNL     1      14.125  13.189  32.612  0.00  0.00    +0.000 C 
ATOM     10  C   UNL     1      15.261  12.213  32.516  0.00  0.00    +0.000 C 
ATOM     11  C   UNL     1      15.057  12.329  33.413  0.00  0.00    +0.000 C 
ENDBRANCH   2   4
BRANCH   3  12
ATOM     12  C   UNL     1      17.706  10.800  37.516  0.00  0.00    +0.000 A 
ATOM     13  C   UNL     1      19.204  10.800  37.599  0.00  0.00    +0.000 A 
ATOM     14  C   UNL     1      19.889  10.129  38.752  0.00  0.00    +0.000 A 
ATOM     15  C   UNL     1      19.078   9.459  39.821  0.00  0.00    +0.000 A 
ATOM     16  C   UNL     1      17.581   9.459  39.738  0.00  0.00    +0.000 A 
ATOM     17  C   UNL     1      16.895  10.130  38.585  0.00  0.00    +0.000 A 
BRANCH  16  18
ATOM     18  N   UNL     1      16.769   8.789  40.807  0.00  0.00    +0.000 N 
ATOM     19  O   UNL     1      15.984   9.616  41.781  0.00  0.00    +0.000 OA
ATOM     20  O   UNL     1      16.743   7.293  40.901  0.00  0.00    +0.000 OA
ENDBRANCH  16  18
ENDBRANCH   3  12
TORSDOF 3
ENDMDL
MODEL 2
REMARK VINA RESULT:      -7.3      2.309      2.742
REMARK  Name = 
REMARK  3 active torsions:
REMARK  status: ('A' for Active; 'I' for Inactive)
REMARK    1  A    between atoms: C_2  and  C_13
REMARK    2  A    between atoms: N_3  and  C_4
REMARK    3  A    between atoms: C_8  and  N_9
REMARK                            x       y       z     vdW  Elec       q    Type
REMARK                         _______ _______ _______ _____ _____    ______ ____
ROOT
ATOM      1  O   UNL     1      17.268   9.141  34.911  0.00  0.00    +0.000 OA
ATOM      2  C   UNL     1      16.895  10.587  35.042  0.00  0.00    +0.000 C 
ATOM      3  N   UNL     1      17.210  11.332  36.306  0.00  0.00    +0.000 NA
ENDROOT
BRANCH   2   4
ATOM      4  C   UNL     1      16.207  11.290  33.910  0.00  0.00    +0.000 C 
ATOM      5  C   UNL     1      16.101  11.605  32.448  0.00  0.00    +0.000 C 
ATOM      6  C   UNL     1      15.750  12.092  31.073  0.00  0.00    +0.000 C 
ATOM      7  C   UNL     1      14.791  12.943  30.295  0.00  0.00    +0.000 C 
ATOM      8  C   UNL     1      13.807  13.534  31.262  0.00  0.00    +0.000 C 
ATOM      9  C   UNL     1      14.158  13.047  32.636  0.00  0.00    +0.000 C 
ATOM     10  C   UNL     1      15.359  12.156  32.520  0.00  0.00    +0.000 C 
ATOM     11  C   UNL     1      15.117  12.196  33.414  0.00  0.00    +0.000 C 
ENDBRANCH   2   4
BRANCH   3  12
ATOM     12  C   UNL     1      17.899  10.628  37.438  0.00  0.00    +0.000 A 
ATOM     13  C   UNL     1      17.097  10.103  38.592  0.00  0.00    +0.000 A 
ATOM     14  C   UNL     1      17.786   9.400  39.724  0.00  0.00    +0.000 A 
ATOM     15  C   UNL     1      19.274   9.221  39.702  0.00  0.00    +0.000 A 
ATOM     16  C   UNL     1      20.076   9.746  38.548  0.00  0.00    +0.000 A 
ATOM     17  C   UNL     1      19.388  10.450  37.416  0.00  0.00    +0.000 A 
BRANCH  16  18
ATOM     18  N   UNL     1      21.566   9.568  38.526  0.00  0.00    +0.000 N 
ATOM     19  O   UNL     1      22.388  10.261  37.481  0.00  0.00    +0.000 OA
ATOM     20  O   UNL     1      22.232   8.696  39.549  0.00  0.00    +0.000 OA
ENDBRANCH  16  18
ENDBRANCH   3  12
TORSDOF 3
ENDMDL
MODEL 3
REMARK VINA RESULT:      -6.5     22.664     24.955
REMARK  Name = 
REMARK  3 active torsions:
REMARK  status: ('A' for Active; 'I' for Inactive)
REMARK    1  A    between atoms: C_2  and  C_13
REMARK    2  A    between atoms: N_3  and  C_4
REMARK    3  A    between atoms: C_8  and  N_9
REMARK                            x       y       z     vdW  Elec       q    Type
REMARK                         _______ _______ _______ _____ _____    ______ ____
ROOT
ATOM      1  O   UNL     1      28.911  27.345  21.779  0.00  0.00    +0.000 OA
ATOM      2  C   UNL     1      29.511  26.527  20.674  0.00  0.00    +0.000 C 
ATOM      3  N   UNL     1      29.660  25.043  20.835  0.00  0.00    +0.000 NA
ENDROOT
BRANCH   2   4
ATOM      4  C   UNL     1      29.963  27.193  19.408  0.00  0.00    +0.000 C 
ATOM      5  C   UNL     1      30.541  28.382  18.699  0.00  0.00    +0.000 C 
ATOM      6  C   UNL     1      31.086  29.393  17.736  0.00  0.00    +0.000 C 
ATOM      7  C   UNL     1      31.400  29.647  16.291  0.00  0.00    +0.000 C 
ATOM      8  C   UNL     1      31.027  28.420  15.514  0.00  0.00    +0.000 C 
ATOM      9  C   UNL     1      30.482  27.408  16.477  0.00  0.00    +0.000 C 
ATOM     10  C   UNL     1      30.518  28.010  17.851  0.00  0.00    +0.000 C 
ATOM     11  C   UNL     1      30.167  27.154  17.922  0.00  0.00    +0.000 C 
ENDBRANCH   2   4
BRANCH   3  12
ATOM     12  C   UNL     1      29.208  24.377  22.101  0.00  0.00    +0.000 A 
ATOM     13  C   UNL     1      30.199  24.087  23.190  0.00  0.00    +0.000 A 
ATOM     14  C   UNL     1      29.747  23.422  24.456  0.00  0.00    +0.000 A 
ATOM     15  C   UNL     1      28.307  23.047  24.634  0.00  0.00    +0.000 A 
ATOM     16  C   UNL     1      27.315  23.337  23.545  0.00  0.00    +0.000 A 
ATOM     17  C   UNL     1      27.767  24.003  22.279  0.00  0.00    +0.000 A 
BRANCH  16  18
ATOM     18  N   UNL     1      25.874  22.963  23.723  0.00  0.00    +0.000 N 
ATOM     19  O   UNL     1      25.272  22.925  25.096  0.00  0.00    +0.000 OA
ATOM     20  O   UNL     1      25.034  22.625  22.527  0.00  0.00    +0.000 OA
ENDBRANCH  16  18
ENDBRANCH   3  12
TORSDOF 3
ENDMDL
MODEL 4
REMARK VINA RESULT:      -6.5     29.153     31.205
REMARK  Name = 
REMARK  3 active torsions:
REMARK  status: ('A' for Active; 'I' for Inactive)
REMARK    1  A    between atoms: C_2  and  C_13
REMARK    2  A    between atoms: N_3  and  C_4
REMARK    3  A    between atoms: C_8  and  N_9
REMARK                            x       y       z     vdW  Elec       q    Type
REMARK                         _______ _______ _______ _____ _____    ______ ____
ROOT
ATOM      1  O   UNL     1      32.919  22.997  10.773  0.00  0.00    +0.000 OA
ATOM      2  C   UNL     1      31.956  21.990  11.327  0.00  0.00    +0.000 C 
ATOM      3  N   UNL     1      32.341  20.542  11.396  0.00  0.00    +0.000 NA
ENDROOT
BRANCH   2   4
ATOM      4  C   UNL     1      30.608  22.430  11.815  0.00  0.00    +0.000 C 
ATOM      5  C   UNL     1      29.120  22.501  11.635  0.00  0.00    +0.000 C 
ATOM      6  C   UNL     1      27.641  22.727  11.725  0.00  0.00    +0.000 C 
ATOM      7  C   UNL     1      26.555  23.338  12.562  0.00  0.00    +0.000 C 
ATOM      8  C   UNL     1      27.195  23.960  13.768  0.00  0.00    +0.000 C 
ATOM      9  C   UNL     1      28.674  23.733  13.677  0.00  0.00    +0.000 C 
ATOM     10  C   UNL     1      28.950  22.971  12.414  0.00  0.00    +0.000 C 
ATOM     11  C   UNL     1      29.760  23.123  12.841  0.00  0.00    +0.000 C 
ENDBRANCH   2   4
BRANCH   3  12
ATOM     12  C   UNL     1      33.691  20.101  10.908  0.00  0.00    +0.000 A 
ATOM     13  C   UNL     1      33.937  19.932   9.438  0.00  0.00    +0.000 A 
ATOM     14  C   UNL     1      35.286  19.492   8.951  0.00  0.00    +0.000 A 
ATOM     15  C   UNL     1      36.387  19.222   9.932  0.00  0.00    +0.000 A 
ATOM     16  C   UNL     1      36.140  19.391  11.402  0.00  0.00    +0.000 A 
ATOM     17  C   UNL     1      34.792  19.831  11.890  0.00  0.00    +0.000 A 
BRANCH  16  18
ATOM     18  N   UNL     1      37.242  19.121  12.385  0.00  0.00    +0.000 N 
ATOM     19  O   UNL     1      37.797  20.239  13.215  0.00  0.00    +0.000 OA
ATOM     20  O   UNL     1      37.787  17.732  12.535  0.00  0.00    +0.000 OA
ENDBRANCH  16  18
ENDBRANCH   3  12
TORSDOF 3
ENDMDL
MODEL 5
REMARK VINA RESULT:      -6.5      2.699      3.089
REMARK  Name = 
REMARK  3 active torsions:
REMARK  status: ('A' for Active; 'I' for Inactive)
REMARK    1  A    between atoms: C_2  and  C_13
REMARK    2  A    between atoms: N_3  and  C_4
REMARK    3  A    between atoms: C_8  and  N_9
REMARK                            x       y       z     vdW  Elec       q    Type
REMARK                         _______ _______ _______ _____ _____    ______ ____
ROOT
ATOM      1  O   UNL     1      16.180  12.839  36.903  0.00  0.00    +0.000 OA
ATOM      2  C   UNL     1      16.547  11.839  35.847  0.00  0.00    +0.000 C 
ATOM      3  N   UNL     1      17.520  10.742  36.159  0.00  0.00    +0.000 NA
ENDROOT
BRANCH   2   4
ATOM      4  C   UNL     1      15.940  11.936  34.479  0.00  0.00    +0.000 C 
ATOM      5  C   UNL     1      15.781  11.400  33.086  0.00  0.00    +0.000 C 
ATOM      6  C   UNL     1      15.431  11.109  31.658  0.00  0.00    +0.000 C 
ATOM      7  C   UNL     1      14.627  11.584  30.484  0.00  0.00    +0.000 C 
ATOM      8  C   UNL     1      13.893  12.824  30.898  0.00  0.00    +0.000 C 
ATOM      9  C   UNL     1      14.242  13.116  32.327  0.00  0.00    +0.000 C 
ATOM     10  C   UNL     1      15.194  12.055  32.797  0.00  0.00    +0.000 C 
ATOM     11  C   UNL     1      15.047  12.641  33.500  0.00  0.00    +0.000 C 
ENDBRANCH   2   4
BRANCH   3  12
ATOM     12  C   UNL     1      18.127  10.645  37.528  0.00  0.00    +0.000 A 
ATOM     13  C   UNL     1      17.527   9.726  38.550  0.00  0.00    +0.000 A 
ATOM     14  C   UNL     1      18.134   9.629  39.918  0.00  0.00    +0.000 A 
ATOM     15  C   UNL     1      19.339  10.451  40.265  0.00  0.00    +0.000 A 
ATOM     16  C   UNL     1      19.939  11.371  39.243  0.00  0.00    +0.000 A 
ATOM     17  C   UNL     1      19.333  11.467  37.874  0.00  0.00    +0.000 A 
BRANCH  16  18
ATOM     18  N   UNL     1      21.145  12.193  39.589  0.00  0.00    +0.000 N 
ATOM     19  O   UNL     1      21.767  12.077  40.949  0.00  0.00    +0.000 OA
ATOM     20  O   UNL     1      21.729  13.131  38.574  0.00  0.00    +0.000 OA
ENDBRANCH  16  18
ENDBRANCH   3  12
TORSDOF 3
ENDMDL
MODEL 6
REMARK VINA RESULT:      -6.5      3.570      7.853
REMARK  Name = 
REMARK  3 active torsions:
REMARK  status: ('A' for Active; 'I' for Inactive)
REMARK    1  A    between atoms: C_2  and  C_13
REMARK    2  A    between atoms: N_3  and  C_4
REMARK    3  A    between atoms: C_8  and  N_9
REMARK                            x       y       z     vdW  Elec       q    Type
REMARK                         _______ _______ _______ _____ _____    ______ ____
ROOT
ATOM      1  O   UNL     1      19.230  12.497  38.228  0.00  0.00    +0.000 OA
ATOM      2  C   UNL     1      19.551  11.176  37.595  0.00  0.00    +0.000 C 
ATOM      3  N   UNL     1      18.461  10.360  36.966  0.00  0.00    +0.000 NA
ENDROOT
BRANCH   2   4
ATOM      4  C   UNL     1      20.963  10.669  37.590  0.00  0.00    +0.000 C 
ATOM      5  C   UNL     1      22.353  10.700  37.028  0.00  0.00    +0.000 C 
ATOM      6  C   UNL     1      23.799  10.509  36.678  0.00  0.00    +0.000 C 
ATOM      7  C   UNL     1      25.038   9.736  37.019  0.00  0.00    +0.000 C 
ATOM      8  C   UNL     1      24.703   8.795  38.138  0.00  0.00    +0.000 C 
ATOM      9  C   UNL     1      23.258   8.986  38.488  0.00  0.00    +0.000 C 
ATOM     10  C   UNL     1      22.698  10.046  37.585  0.00  0.00    +0.000 C 
ATOM     11  C   UNL     1      22.018   9.759  38.147  0.00  0.00    +0.000 C 
ENDBRANCH   2   4
BRANCH   3  12
ATOM     12  C   UNL     1      17.048  10.867  36.971  0.00  0.00    +0.000 A 
ATOM     13  C   UNL     1      16.183  10.662  38.180  0.00  0.00    +0.000 A 
ATOM     14  C   UNL     1      14.771  11.169  38.184  0.00  0.00    +0.000 A 
ATOM     15  C   UNL     1      14.225  11.880  36.983  0.00  0.00    +0.000 A 
ATOM     16  C   UNL     1      15.090  12.085  35.774  0.00  0.00    +0.000 A 
ATOM     17  C   UNL     1      16.502  11.578  35.770  0.00  0.00    +0.000 A 
BRANCH  16  18
ATOM     18  N   UNL     1      14.544  12.796  34.572  0.00  0.00    +0.000 N 
ATOM     19  O   UNL     1      13.613  13.959  34.747  0.00  0.00    +0.000 OA
ATOM     20  O   UNL     1      14.929  12.345  33.194  0.00  0.00    +0.000 OA
ENDBRANCH  16  18
ENDBRANCH   3  12
TORSDOF 3
ENDMDL
MODEL 7
REMARK VINA RESULT:      -6.4     22.720     23.971
REMARK  Name = 
REMARK  3 active torsions:
REMARK  status: ('A' for Active; 'I' for Inactive)
REMARK    1  A    between atoms: C_2  and  C_13
REMARK    2  A    between atoms: N_3  and  C_4
REMARK    3  A    between atoms: C_8  and  N_9
REMARK                            x       y       z     vdW  Elec       q    Type
REMARK                         _______ _______ _______ _____ _____    ______ ____
ROOT
ATOM      1  O   UNL     1      23.429  -9.337  25.192  0.00  0.00    +0.000 OA
ATOM      2  C   UNL     1      22.736  -8.209  24.489  0.00  0.00    +0.000 C 
ATOM      3  N   UNL     1      23.236  -7.733  23.157  0.00  0.00    +0.000 NA
ENDROOT
BRANCH   2   4
ATOM      4  C   UNL     1      21.541  -7.555  25.117  0.00  0.00    +0.000 C 
ATOM      5  C   UNL     1      20.776  -6.315  25.476  0.00  0.00    +0.000 C 
ATOM      6  C   UNL     1      19.807  -5.277  25.958  0.00  0.00    +0.000 C 
ATOM      7  C   UNL     1      18.503  -5.071  26.669  0.00  0.00    +0.000 C 
ATOM      8  C   UNL     1      17.960  -6.420  27.039  0.00  0.00    +0.000 C 
ATOM      9  C   UNL     1      18.929  -7.458  26.557  0.00  0.00    +0.000 C 
ATOM     10  C   UNL     1      20.071  -6.751  25.888  0.00  0.00    +0.000 C 
ATOM     11  C   UNL     1      20.233  -7.663  25.846  0.00  0.00    +0.000 C 
ENDBRANCH   2   4
BRANCH   3  12
ATOM     12  C   UNL     1      24.432  -8.388  22.530  0.00  0.00    +0.000 A 
ATOM     13  C   UNL     1      24.244  -9.516  21.558  0.00  0.00    +0.000 A 
ATOM     14  C   UNL     1      25.439 -10.170  20.931  0.00  0.00    +0.000 A 
ATOM     15  C   UNL     1      26.820  -9.697  21.274  0.00  0.00    +0.000 A 
ATOM     16  C   UNL     1      27.008  -8.569  22.245  0.00  0.00    +0.000 A 
ATOM     17  C   UNL     1      25.813  -7.915  22.872  0.00  0.00    +0.000 A 
BRANCH  16  18
ATOM     18  N   UNL     1      28.390  -8.096  22.588  0.00  0.00    +0.000 N 
ATOM     19  O   UNL     1      28.905  -6.809  22.016  0.00  0.00    +0.000 OA
ATOM     20  O   UNL     1      29.255  -8.909  23.505  0.00  0.00    +0.000 OA
ENDBRANCH  16  18
ENDBRANCH   3  12
TORSDOF 3
ENDMDL
MODEL 8
REMARK VINA RESULT:      -6.3     19.409     21.975
REMARK  Name = 
REMARK  3 active torsions:
REMARK  status: ('A' for Active; 'I' for Inactive)
REMARK    1  A    between atoms: C_2  and  C_13
REMARK    2  A    between atoms: N_3  and  C_4
REMARK    3  A    between atoms: C_8  and  N_9
REMARK                            x       y       z     vdW  Elec       q    Type
REMARK                         _______ _______ _______ _____ _____    ______ ____
ROOT
ATOM      1  O   UNL     1      29.592  24.775  27.135  0.00  0.00    +0.000 OA
ATOM      2  C   UNL     1      29.830  23.300  27.265  0.00  0.00    +0.000 C 
ATOM      3  N   UNL     1      29.154  22.346  26.325  0.00  0.00    +0.000 NA
ENDROOT
BRANCH   2   4
ATOM      4  C   UNL     1      30.742  22.777  28.334  0.00  0.00    +0.000 C 
ATOM      5  C   UNL     1      32.104  22.330  28.777  0.00  0.00    +0.000 C 
ATOM      6  C   UNL     1      33.325  21.837  29.494  0.00  0.00    +0.000 C 
ATOM      7  C   UNL     1      33.839  21.336  30.812  0.00  0.00    +0.000 C 
ATOM      8  C   UNL     1      32.695  21.324  31.781  0.00  0.00    +0.000 C 
ATOM      9  C   UNL     1      31.474  21.818  31.064  0.00  0.00    +0.000 C 
ATOM     10  C   UNL     1      31.863  22.135  29.650  0.00  0.00    +0.000 C 
ATOM     11  C   UNL     1      30.959  22.319  29.746  0.00  0.00    +0.000 C 
ENDBRANCH   2   4
BRANCH   3  12
ATOM     12  C   UNL     1      28.241  22.869  25.254  0.00  0.00    +0.000 A 
ATOM     13  C   UNL     1      26.755  22.726  25.403  0.00  0.00    +0.000 A 
ATOM     14  C   UNL     1      25.843  23.249  24.333  0.00  0.00    +0.000 A 
ATOM     15  C   UNL     1      26.415  23.913  23.117  0.00  0.00    +0.000 A 
ATOM     16  C   UNL     1      27.901  24.056  22.968  0.00  0.00    +0.000 A 
ATOM     17  C   UNL     1      28.814  23.533  24.038  0.00  0.00    +0.000 A 
BRANCH  16  18
ATOM     18  N   UNL     1      28.474  24.720  21.752  0.00  0.00    +0.000 N 
ATOM     19  O   UNL     1      29.713  24.170  21.110  0.00  0.00    +0.000 OA
ATOM     20  O   UNL     1      27.808  25.935  21.177  0.00  0.00    +0.000 OA
ENDBRANCH  16  18
ENDBRANCH   3  12
TORSDOF 3
ENDMDL
MODEL 9
REMARK VINA RESULT:      -6.3      2.168      2.638
REMARK  Name = 
REMARK  3 active torsions:
REMARK  status: ('A' for Active; 'I' for Inactive)
REMARK    1  A    between atoms: C_2  and  C_13
REMARK    2  A    between atoms: N_3  and  C_4
REMARK    3  A    between atoms: C_8  and  N_9
REMARK                            x       y       z     vdW  Elec       q    Type
REMARK                         _______ _______ _______ _____ _____    ______ ____
ROOT
ATOM      1  O   UNL     1      19.763   9.713  36.058  0.00  0.00    +0.000 OA
ATOM      2  C   UNL     1      18.308  10.035  36.226  0.00  0.00    +0.000 C 
ATOM      3  N   UNL     1      17.681   9.983  37.588  0.00  0.00    +0.000 NA
ENDROOT
BRANCH   2   4
ATOM      4  C   UNL     1      17.479  10.409  35.033  0.00  0.00    +0.000 C 
ATOM      5  C   UNL     1      17.200  10.314  33.562  0.00  0.00    +0.000 C 
ATOM      6  C   UNL     1      16.684  10.410  32.158  0.00  0.00    +0.000 C 
ATOM      7  C   UNL     1      15.623  11.025  31.294  0.00  0.00    +0.000 C 
ATOM      8  C   UNL     1      14.741  11.864  32.171  0.00  0.00    +0.000 C 
ATOM      9  C   UNL     1      15.257  11.768  33.576  0.00  0.00    +0.000 C 
ATOM     10  C   UNL     1      16.459  10.869  33.568  0.00  0.00    +0.000 C 
ATOM     11  C   UNL     1      16.319  11.153  34.439  0.00  0.00    +0.000 C 
ENDBRANCH   2   4
BRANCH   3  12
ATOM     12  C   UNL     1      18.511   9.609  38.781  0.00  0.00    +0.000 A 
ATOM     13  C   UNL     1      19.266  10.668  39.529  0.00  0.00    +0.000 A 
ATOM     14  C   UNL     1      20.095  10.294  40.722  0.00  0.00    +0.000 A 
ATOM     15  C   UNL     1      20.169   8.864  41.166  0.00  0.00    +0.000 A 
ATOM     16  C   UNL     1      19.414   7.805  40.418  0.00  0.00    +0.000 A 
ATOM     17  C   UNL     1      18.585   8.179  39.225  0.00  0.00    +0.000 A 
BRANCH  16  18
ATOM     18  N   UNL     1      19.488   6.374  40.862  0.00  0.00    +0.000 N 
ATOM     19  O   UNL     1      18.925   5.290  39.993  0.00  0.00    +0.000 OA
ATOM     20  O   UNL     1      20.126   6.029  42.175  0.00  0.00    +0.000 OA
ENDBRANCH  16  18
ENDBRANCH   3  12
TORSDOF 3
ENDMDL
MODEL 10
REMARK VINA RESULT:      -6.2     19.804     21.805
REMARK  Name = 
REMARK  3 active torsions:
REMARK  status: ('A' for Active; 'I' for Inactive)
REMARK    1  A    between atoms: C_2  and  C_13
REMARK    2  A    between atoms: N_3  and  C_4
REMARK    3  A    between atoms: C_8  and  N_9
REMARK                            x       y       z     vdW  Elec       q    Type
REMARK                         _______ _______ _______ _____ _____    ______ ____
ROOT
ATOM      1  O   UNL     1      30.559  24.827  27.077  0.00  0.00    +0.000 OA
ATOM      2  C   UNL     1      30.721  23.340  27.180  0.00  0.00    +0.000 C 
ATOM      3  N   UNL     1      30.219  22.452  26.081  0.00  0.00    +0.000 NA
ENDROOT
BRANCH   2   4
ATOM      4  C   UNL     1      31.384  22.739  28.384  0.00  0.00    +0.000 C 
ATOM      5  C   UNL     1      32.607  22.184  29.052  0.00  0.00    +0.000 C 
ATOM      6  C   UNL     1      33.638  21.591  29.965  0.00  0.00    +0.000 C 
ATOM      7  C   UNL     1      33.869  21.040  31.341  0.00  0.00    +0.000 C 
ATOM      8  C   UNL     1      32.571  21.110  32.091  0.00  0.00    +0.000 C 
ATOM      9  C   UNL     1      31.540  21.703  31.178  0.00  0.00    +0.000 C 
ATOM     10  C   UNL     1      32.199  22.000  29.864  0.00  0.00    +0.000 C 
ATOM     11  C   UNL     1      31.309  22.254  29.802  0.00  0.00    +0.000 C 
ENDBRANCH   2   4
BRANCH   3  12
ATOM     12  C   UNL     1      29.554  23.054  24.876  0.00  0.00    +0.000 A 
ATOM     13  C   UNL     1      30.383  23.726  23.822  0.00  0.00    +0.000 A 
ATOM     14  C   UNL     1      29.719  24.327  22.619  0.00  0.00    +0.000 A 
ATOM     15  C   UNL     1      28.229  24.256  22.470  0.00  0.00    +0.000 A 
ATOM     16  C   UNL     1      27.400  23.584  23.524  0.00  0.00    +0.000 A 
ATOM     17  C   UNL     1      28.064  22.983  24.727  0.00  0.00    +0.000 A 
BRANCH  16  18
ATOM     18  N   UNL     1      25.909  23.513  23.376  0.00  0.00    +0.000 N 
ATOM     19  O   UNL     1      25.305  22.728  22.250  0.00  0.00    +0.000 OA
ATOM     20  O   UNL     1      25.024  24.227  24.353  0.00  0.00    +0.000 OA
ENDBRANCH  16  18
ENDBRANCH   3  12
TORSDOF 3
ENDMDL
