MODEL 1
REMARK VINA RESULT:      -6.9      0.000      0.000
REMARK  Name = 
REMARK  3 active torsions:
REMARK  status: ('A' for Active; 'I' for Inactive)
REMARK    1  A    between atoms: C_5  and  N_6
REMARK    2  A    between atoms: C_7  and  C_9
REMARK    3  A    between atoms: C_12  and  C_13
REMARK                            x       y       z     vdW  Elec       q    Type
REMARK                         _______ _______ _______ _____ _____    ______ ____
ROOT
ATOM      1  N   UNL     1      15.052  11.395  35.965  0.00  0.00    +0.000 NA
ATOM      2  C   UNL     1      16.249  11.665  36.674  0.00  0.00    +0.000 C 
ATOM      3  O   UNL     1      17.028  12.555  36.247  0.00  0.00    +0.000 OA
ENDROOT
BRANCH   1   8
ATOM      4  C   UNL     1      13.787  14.481  31.360  0.00  0.00    +0.000 C 
ATOM      5  C   UNL     1      14.139  13.644  32.542  0.00  0.00    +0.000 A 
ATOM      6  C   UNL     1      13.726  14.080  33.786  0.00  0.00    +0.000 A 
ATOM      7  C   UNL     1      14.049  13.307  34.889  0.00  0.00    +0.000 A 
ATOM      8  C   UNL     1      14.757  12.134  34.792  0.00  0.00    +0.000 A 
ATOM      9  C   UNL     1      15.168  11.702  33.546  0.00  0.00    +0.000 A 
ATOM     10  O   UNL     1      15.885  10.517  33.435  0.00  0.00    +0.000 OA
ATOM     11  C   UNL     1      14.858  12.460  32.413  0.00  0.00    +0.000 A 
ENDBRANCH   1   8
BRANCH   2  12
ATOM     12  C   UNL     1      16.555  10.908  37.880  0.00  0.00    +0.000 A 
ATOM     13  C   UNL     1      15.573  10.625  38.788  0.00  0.00    +0.000 A 
ATOM     14  C   UNL     1      15.854   9.909  39.932  0.00  0.00    +0.000 A 
ATOM     15  C   UNL     1      17.151   9.473  40.164  0.00  0.00    +0.000 A 
ATOM     16  C   UNL     1      18.129   9.764  39.243  0.00  0.00    +0.000 A 
ATOM     17  C   UNL     1      17.836  10.477  38.109  0.00  0.00    +0.000 A 
BRANCH  15  18
ATOM     18  C   UNL     1      17.399   8.706  41.411  0.00  0.00    +0.000 C 
ATOM     19 CL   UNL     1      16.315   7.305  41.531  0.00  0.00    +0.000 Cl
ENDBRANCH  15  18
ENDBRANCH   2  12
TORSDOF 3
ENDMDL
MODEL 2
REMARK VINA RESULT:      -6.8      3.541      7.667
REMARK  Name = 
REMARK  3 active torsions:
REMARK  status: ('A' for Active; 'I' for Inactive)
REMARK    1  A    between atoms: C_5  and  N_6
REMARK    2  A    between atoms: C_7  and  C_9
REMARK    3  A    between atoms: C_12  and  C_13
REMARK                            x       y       z     vdW  Elec       q    Type
REMARK                         _______ _______ _______ _____ _____    ______ ____
ROOT
ATOM      1  N   UNL     1      17.290  10.878  36.425  0.00  0.00    +0.000 NA
ATOM      2  C   UNL     1      16.925  10.091  35.304  0.00  0.00    +0.000 C 
ATOM      3  O   UNL     1      17.059   8.842  35.360  0.00  0.00    +0.000 OA
ENDROOT
BRANCH   1   8
ATOM      4  C   UNL     1      19.170   8.342  41.153  0.00  0.00    +0.000 C 
ATOM      5  C   UNL     1      18.716   9.001  39.896  0.00  0.00    +0.000 A 
ATOM      6  C   UNL     1      17.412   9.452  39.840  0.00  0.00    +0.000 A 
ATOM      7  C   UNL     1      16.983  10.065  38.675  0.00  0.00    +0.000 A 
ATOM      8  C   UNL     1      17.799  10.241  37.584  0.00  0.00    +0.000 A 
ATOM      9  C   UNL     1      19.103   9.788  37.645  0.00  0.00    +0.000 A 
ATOM     10  O   UNL     1      19.938   9.959  36.548  0.00  0.00    +0.000 OA
ATOM     11  C   UNL     1      19.566   9.165  38.807  0.00  0.00    +0.000 A 
ENDBRANCH   1   8
BRANCH   2  12
ATOM     12  C   UNL     1      16.401  10.742  34.111  0.00  0.00    +0.000 A 
ATOM     13  C   UNL     1      15.524  11.785  34.218  0.00  0.00    +0.000 A 
ATOM     14  C   UNL     1      15.024  12.407  33.095  0.00  0.00    +0.000 A 
ATOM     15  C   UNL     1      15.416  11.965  31.838  0.00  0.00    +0.000 A 
ATOM     16  C   UNL     1      16.299  10.917  31.744  0.00  0.00    +0.000 A 
ATOM     17  C   UNL     1      16.788  10.307  32.870  0.00  0.00    +0.000 A 
BRANCH  15  18
ATOM     18  C   UNL     1      14.848  12.671  30.661  0.00  0.00    +0.000 C 
ATOM     19 CL   UNL     1      15.917  13.978  30.115  0.00  0.00    +0.000 Cl
ENDBRANCH  15  18
ENDBRANCH   2  12
TORSDOF 3
ENDMDL
MODEL 3
REMARK VINA RESULT:      -6.2     19.322     20.693
REMARK  Name = 
REMARK  3 active torsions:
REMARK  status: ('A' for Active; 'I' for Inactive)
REMARK    1  A    between atoms: C_5  and  N_6
REMARK    2  A    between atoms: C_7  and  C_9
REMARK    3  A    between atoms: C_12  and  C_13
REMARK                            x       y       z     vdW  Elec       q    Type
REMARK                         _______ _______ _______ _____ _____    ______ ____
ROOT
ATOM      1  N   UNL     1      34.731   3.808  35.520  0.00  0.00    +0.000 NA
ATOM      2  C   UNL     1      33.967   3.332  34.426  0.00  0.00    +0.000 C 
ATOM      3  O   UNL     1      33.399   4.159  33.668  0.00  0.00    +0.000 OA
ENDROOT
BRANCH   1   8
ATOM      4  C   UNL     1      35.304   9.413  36.276  0.00  0.00    +0.000 C 
ATOM      5  C   UNL     1      35.121   7.944  36.105  0.00  0.00    +0.000 A 
ATOM      6  C   UNL     1      35.989   7.281  35.261  0.00  0.00    +0.000 A 
ATOM      7  C   UNL     1      35.824   5.916  35.097  0.00  0.00    +0.000 A 
ATOM      8  C   UNL     1      34.839   5.204  35.737  0.00  0.00    +0.000 A 
ATOM      9  C   UNL     1      33.973   5.872  36.580  0.00  0.00    +0.000 A 
ATOM     10  O   UNL     1      32.972   5.164  37.233  0.00  0.00    +0.000 OA
ATOM     11  C   UNL     1      34.113   7.250  36.767  0.00  0.00    +0.000 A 
ENDBRANCH   1   8
BRANCH   2  12
ATOM     12  C   UNL     1      33.854   1.897  34.199  0.00  0.00    +0.000 A 
ATOM     13  C   UNL     1      33.585   1.051  35.239  0.00  0.00    +0.000 A 
ATOM     14  C   UNL     1      33.476  -0.308  35.033  0.00  0.00    +0.000 A 
ATOM     15  C   UNL     1      33.643  -0.821  33.754  0.00  0.00    +0.000 A 
ATOM     16  C   UNL     1      33.912   0.041  32.719  0.00  0.00    +0.000 A 
ATOM     17  C   UNL     1      34.018   1.390  32.937  0.00  0.00    +0.000 A 
BRANCH  15  18
ATOM     18  C   UNL     1      33.515  -2.291  33.589  0.00  0.00    +0.000 C 
ATOM     19 CL   UNL     1      32.200  -2.940  34.590  0.00  0.00    +0.000 Cl
ENDBRANCH  15  18
ENDBRANCH   2  12
TORSDOF 3
ENDMDL
MODEL 4
REMARK VINA RESULT:      -6.2      4.404      7.488
REMARK  Name = 
REMARK  3 active torsions:
REMARK  status: ('A' for Active; 'I' for Inactive)
REMARK    1  A    between atoms: C_5  and  N_6
REMARK    2  A    between atoms: C_7  and  C_9
REMARK    3  A    between atoms: C_12  and  C_13
REMARK                            x       y       z     vdW  Elec       q    Type
REMARK                         _______ _______ _______ _____ _____    ______ ____
ROOT
ATOM      1  N   UNL     1      20.254  10.010  37.383  0.00  0.00    +0.000 NA
ATOM      2  C   UNL     1      19.630  11.239  37.714  0.00  0.00    +0.000 C 
ATOM      3  O   UNL     1      20.343  12.219  38.049  0.00  0.00    +0.000 OA
ENDROOT
BRANCH   1   8
ATOM      4  C   UNL     1      25.929   9.667  37.426  0.00  0.00    +0.000 C 
ATOM      5  C   UNL     1      24.441   9.746  37.456  0.00  0.00    +0.000 A 
ATOM      6  C   UNL     1      23.792  10.119  36.295  0.00  0.00    +0.000 A 
ATOM      7  C   UNL     1      22.409  10.193  36.316  0.00  0.00    +0.000 A 
ATOM      8  C   UNL     1      21.667   9.912  37.437  0.00  0.00    +0.000 A 
ATOM      9  C   UNL     1      22.320   9.539  38.595  0.00  0.00    +0.000 A 
ATOM     10  O   UNL     1      21.580   9.253  39.736  0.00  0.00    +0.000 OA
ATOM     11  C   UNL     1      23.715   9.455  38.607  0.00  0.00    +0.000 A 
ENDBRANCH   1   8
BRANCH   2  12
ATOM     12  C   UNL     1      18.178  11.344  37.660  0.00  0.00    +0.000 A 
ATOM     13  C   UNL     1      17.392  10.386  38.237  0.00  0.00    +0.000 A 
ATOM     14  C   UNL     1      16.017  10.477  38.191  0.00  0.00    +0.000 A 
ATOM     15  C   UNL     1      15.426  11.556  37.547  0.00  0.00    +0.000 A 
ATOM     16  C   UNL     1      16.227  12.512  36.971  0.00  0.00    +0.000 A 
ATOM     17  C   UNL     1      17.593  12.409  37.025  0.00  0.00    +0.000 A 
BRANCH  15  18
ATOM     18  C   UNL     1      13.942  11.606  37.526  0.00  0.00    +0.000 C 
ATOM     19 CL   UNL     1      13.250  10.762  38.926  0.00  0.00    +0.000 Cl
ENDBRANCH  15  18
ENDBRANCH   2  12
TORSDOF 3
ENDMDL
MODEL 5
REMARK VINA RESULT:      -6.1     19.449     20.760
REMARK  Name = 
REMARK  3 active torsions:
REMARK  status: ('A' for Active; 'I' for Inactive)
REMARK    1  A    between atoms: C_5  and  N_6
REMARK    2  A    between atoms: C_7  and  C_9
REMARK    3  A    between atoms: C_12  and  C_13
REMARK                            x       y       z     vdW  Elec       q    Type
REMARK                         _______ _______ _______ _____ _____    ______ ____
ROOT
ATOM      1  N   UNL     1      34.611   4.184  35.977  0.00  0.00    +0.000 NA
ATOM      2  C   UNL     1      34.063   3.601  34.807  0.00  0.00    +0.000 C 
ATOM      3  O   UNL     1      33.881   4.318  33.791  0.00  0.00    +0.000 OA
ENDROOT
BRANCH   1   8
ATOM      4  C   UNL     1      35.762   9.751  36.014  0.00  0.00    +0.000 C 
ATOM      5  C   UNL     1      35.501   8.284  35.996  0.00  0.00    +0.000 A 
ATOM      6  C   UNL     1      34.211   7.856  36.237  0.00  0.00    +0.000 A 
ATOM      7  C   UNL     1      33.961   6.494  36.222  0.00  0.00    +0.000 A 
ATOM      8  C   UNL     1      34.941   5.562  35.977  0.00  0.00    +0.000 A 
ATOM      9  C   UNL     1      36.230   5.995  35.736  0.00  0.00    +0.000 A 
ATOM     10  O   UNL     1      37.230   5.063  35.488  0.00  0.00    +0.000 OA
ATOM     11  C   UNL     1      36.514   7.363  35.745  0.00  0.00    +0.000 A 
ENDBRANCH   1   8
BRANCH   2  12
ATOM     12  C   UNL     1      33.723   2.184  34.804  0.00  0.00    +0.000 A 
ATOM     13  C   UNL     1      33.308   1.574  33.653  0.00  0.00    +0.000 A 
ATOM     14  C   UNL     1      32.984   0.234  33.641  0.00  0.00    +0.000 A 
ATOM     15  C   UNL     1      33.080  -0.502  34.814  0.00  0.00    +0.000 A 
ATOM     16  C   UNL     1      33.498   0.123  35.964  0.00  0.00    +0.000 A 
ATOM     17  C   UNL     1      33.817   1.456  35.962  0.00  0.00    +0.000 A 
BRANCH  15  18
ATOM     18  C   UNL     1      32.719  -1.941  34.745  0.00  0.00    +0.000 C 
ATOM     19 CL   UNL     1      33.504  -2.736  33.366  0.00  0.00    +0.000 Cl
ENDBRANCH  15  18
ENDBRANCH   2  12
TORSDOF 3
ENDMDL
MODEL 6
REMARK VINA RESULT:      -6.1      3.948      5.186
REMARK  Name = 
REMARK  3 active torsions:
REMARK  status: ('A' for Active; 'I' for Inactive)
REMARK    1  A    between atoms: C_5  and  N_6
REMARK    2  A    between atoms: C_7  and  C_9
REMARK    3  A    between atoms: C_12  and  C_13
REMARK                            x       y       z     vdW  Elec       q    Type
REMARK                         _______ _______ _______ _____ _____    ______ ____
ROOT
ATOM      1  N   UNL     1      18.196  10.122  37.066  0.00  0.00    +0.000 NA
ATOM      2  C   UNL     1      19.260  10.923  37.548  0.00  0.00    +0.000 C 
ATOM      3  O   UNL     1      19.036  12.121  37.856  0.00  0.00    +0.000 OA
ENDROOT
BRANCH   1   8
ATOM      4  C   UNL     1      12.978  12.356  36.739  0.00  0.00    +0.000 C 
ATOM      5  C   UNL     1      14.351  11.779  36.784  0.00  0.00    +0.000 A 
ATOM      6  C   UNL     1      14.800  11.275  37.988  0.00  0.00    +0.000 A 
ATOM      7  C   UNL     1      16.076  10.738  38.037  0.00  0.00    +0.000 A 
ATOM      8  C   UNL     1      16.902  10.687  36.941  0.00  0.00    +0.000 A 
ATOM      9  C   UNL     1      16.449  11.191  35.738  0.00  0.00    +0.000 A 
ATOM     10  O   UNL     1      17.276  11.146  34.622  0.00  0.00    +0.000 OA
ATOM     11  C   UNL     1      15.167  11.741  35.656  0.00  0.00    +0.000 A 
ENDBRANCH   1   8
BRANCH   2  12
ATOM     12  C   UNL     1      20.591  10.346  37.678  0.00  0.00    +0.000 A 
ATOM     13  C   UNL     1      21.164  10.194  38.910  0.00  0.00    +0.000 A 
ATOM     14  C   UNL     1      22.423   9.649  39.042  0.00  0.00    +0.000 A 
ATOM     15  C   UNL     1      23.117   9.251  37.908  0.00  0.00    +0.000 A 
ATOM     16  C   UNL     1      22.530   9.408  36.675  0.00  0.00    +0.000 A 
ATOM     17  C   UNL     1      21.277   9.952  36.559  0.00  0.00    +0.000 A 
BRANCH  15  18
ATOM     18  C   UNL     1      24.469   8.669  38.106  0.00  0.00    +0.000 C 
ATOM     19 CL   UNL     1      25.734   9.762  37.510  0.00  0.00    +0.000 Cl
ENDBRANCH  15  18
ENDBRANCH   2  12
TORSDOF 3
ENDMDL
MODEL 7
REMARK VINA RESULT:      -6.1     23.235     24.421
REMARK  Name = 
REMARK  3 active torsions:
REMARK  status: ('A' for Active; 'I' for Inactive)
REMARK    1  A    between atoms: C_5  and  N_6
REMARK    2  A    between atoms: C_7  and  C_9
REMARK    3  A    between atoms: C_12  and  C_13
REMARK                            x       y       z     vdW  Elec       q    Type
REMARK                         _______ _______ _______ _____ _____    ______ ____
ROOT
ATOM      1  N   UNL     1      22.535  -7.529  25.109  0.00  0.00    +0.000 NA
ATOM      2  C   UNL     1      22.715  -8.011  23.789  0.00  0.00    +0.000 C 
ATOM      3  O   UNL     1      21.706  -8.318  23.104  0.00  0.00    +0.000 OA
ENDROOT
BRANCH   1   8
ATOM      4  C   UNL     1      17.268  -6.854  27.141  0.00  0.00    +0.000 C 
ATOM      5  C   UNL     1      18.648  -7.071  26.622  0.00  0.00    +0.000 A 
ATOM      6  C   UNL     1      19.276  -6.012  25.997  0.00  0.00    +0.000 A 
ATOM      7  C   UNL     1      20.558  -6.207  25.512  0.00  0.00    +0.000 A 
ATOM      8  C   UNL     1      21.223  -7.403  25.630  0.00  0.00    +0.000 A 
ATOM      9  C   UNL     1      20.591  -8.460  26.256  0.00  0.00    +0.000 A 
ATOM     10  O   UNL     1      21.253  -9.675  26.381  0.00  0.00    +0.000 OA
ATOM     11  C   UNL     1      19.297  -8.295  26.755  0.00  0.00    +0.000 A 
ENDBRANCH   1   8
BRANCH   2  12
ATOM     12  C   UNL     1      24.062  -8.141  23.250  0.00  0.00    +0.000 A 
ATOM     13  C   UNL     1      25.012  -7.198  23.524  0.00  0.00    +0.000 A 
ATOM     14  C   UNL     1      26.289  -7.313  23.018  0.00  0.00    +0.000 A 
ATOM     15  C   UNL     1      26.611  -8.402  22.219  0.00  0.00    +0.000 A 
ATOM     16  C   UNL     1      25.647  -9.343  21.952  0.00  0.00    +0.000 A 
ATOM     17  C   UNL     1      24.381  -9.216  22.461  0.00  0.00    +0.000 A 
BRANCH  15  18
ATOM     18  C   UNL     1      28.001  -8.478  21.701  0.00  0.00    +0.000 C 
ATOM     19 CL   UNL     1      28.845  -6.928  21.891  0.00  0.00    +0.000 Cl
ENDBRANCH  15  18
ENDBRANCH   2  12
TORSDOF 3
ENDMDL
MODEL 8
REMARK VINA RESULT:      -6.0      1.928      2.640
REMARK  Name = 
REMARK  3 active torsions:
REMARK  status: ('A' for Active; 'I' for Inactive)
REMARK    1  A    between atoms: C_5  and  N_6
REMARK    2  A    between atoms: C_7  and  C_9
REMARK    3  A    between atoms: C_12  and  C_13
REMARK                            x       y       z     vdW  Elec       q    Type
REMARK                         _______ _______ _______ _____ _____    ______ ____
ROOT
ATOM      1  N   UNL     1      16.621  10.349  36.043  0.00  0.00    +0.000 NA
ATOM      2  C   UNL     1      17.381  11.157  36.927  0.00  0.00    +0.000 C 
ATOM      3  O   UNL     1      17.711  12.316  36.568  0.00  0.00    +0.000 OA
ENDROOT
BRANCH   1   8
ATOM      4  C   UNL     1      15.272  12.323  30.886  0.00  0.00    +0.000 C 
ATOM      5  C   UNL     1      15.593  11.828  32.254  0.00  0.00    +0.000 A 
ATOM      6  C   UNL     1      16.671  10.976  32.395  0.00  0.00    +0.000 A 
ATOM      7  C   UNL     1      16.975  10.512  33.663  0.00  0.00    +0.000 A 
ATOM      8  C   UNL     1      16.251  10.864  34.776  0.00  0.00    +0.000 A 
ATOM      9  C   UNL     1      15.173  11.716  34.631  0.00  0.00    +0.000 A 
ATOM     10  O   UNL     1      14.433  12.079  35.749  0.00  0.00    +0.000 OA
ATOM     11  C   UNL     1      14.841  12.201  33.364  0.00  0.00    +0.000 A 
ENDBRANCH   1   8
BRANCH   2  12
ATOM     12  C   UNL     1      17.763  10.631  38.230  0.00  0.00    +0.000 A 
ATOM     13  C   UNL     1      19.043  10.776  38.688  0.00  0.00    +0.000 A 
ATOM     14  C   UNL     1      19.414  10.281  39.920  0.00  0.00    +0.000 A 
ATOM     15  C   UNL     1      18.473   9.626  40.703  0.00  0.00    +0.000 A 
ATOM     16  C   UNL     1      17.191   9.487  40.232  0.00  0.00    +0.000 A 
ATOM     17  C   UNL     1      16.836   9.984  39.005  0.00  0.00    +0.000 A 
BRANCH  15  18
ATOM     18  C   UNL     1      18.926   9.113  42.022  0.00  0.00    +0.000 C 
ATOM     19 CL   UNL     1      20.287  10.063  42.650  0.00  0.00    +0.000 Cl
ENDBRANCH  15  18
ENDBRANCH   2  12
TORSDOF 3
ENDMDL
MODEL 9
REMARK VINA RESULT:      -5.9      3.533      7.554
REMARK  Name = 
REMARK  3 active torsions:
REMARK  status: ('A' for Active; 'I' for Inactive)
REMARK    1  A    between atoms: C_5  and  N_6
REMARK    2  A    between atoms: C_7  and  C_9
REMARK    3  A    between atoms: C_12  and  C_13
REMARK                            x       y       z     vdW  Elec       q    Type
REMARK                         _______ _______ _______ _____ _____    ______ ____
ROOT
ATOM      1  N   UNL     1      18.287  10.689  36.733  0.00  0.00    +0.000 NA
ATOM      2  C   UNL     1      17.327  11.688  36.434  0.00  0.00    +0.000 C 
ATOM      3  O   UNL     1      17.094  12.588  37.280  0.00  0.00    +0.000 OA
ENDROOT
BRANCH   1   8
ATOM      4  C   UNL     1      21.132  10.938  41.648  0.00  0.00    +0.000 C 
ATOM      5  C   UNL     1      20.356  10.850  40.379  0.00  0.00    +0.000 A 
ATOM      6  C   UNL     1      20.867  11.486  39.265  0.00  0.00    +0.000 A 
ATOM      7  C   UNL     1      20.152  11.408  38.083  0.00  0.00    +0.000 A 
ATOM      8  C   UNL     1      18.964  10.726  37.977  0.00  0.00    +0.000 A 
ATOM      9  C   UNL     1      18.456  10.090  39.093  0.00  0.00    +0.000 A 
ATOM     10  O   UNL     1      17.256   9.397  38.999  0.00  0.00    +0.000 OA
ATOM     11  C   UNL     1      19.155  10.151  40.302  0.00  0.00    +0.000 A 
ENDBRANCH   1   8
BRANCH   2  12
ATOM     12  C   UNL     1      16.629  11.653  35.156  0.00  0.00    +0.000 A 
ATOM     13  C   UNL     1      15.458  12.338  34.987  0.00  0.00    +0.000 A 
ATOM     14  C   UNL     1      14.791  12.310  33.781  0.00  0.00    +0.000 A 
ATOM     15  C   UNL     1      15.316  11.576  32.727  0.00  0.00    +0.000 A 
ATOM     16  C   UNL     1      16.494  10.892  32.910  0.00  0.00    +0.000 A 
ATOM     17  C   UNL     1      17.147  10.928  34.114  0.00  0.00    +0.000 A 
BRANCH  15  18
ATOM     18  C   UNL     1      14.558  11.581  31.450  0.00  0.00    +0.000 C 
ATOM     19 CL   UNL     1      13.758  13.142  31.182  0.00  0.00    +0.000 Cl
ENDBRANCH  15  18
ENDBRANCH   2  12
TORSDOF 3
ENDMDL
MODEL 10
REMARK VINA RESULT:      -5.8     21.678     22.906
REMARK  Name = 
REMARK  3 active torsions:
REMARK  status: ('A' for Active; 'I' for Inactive)
REMARK    1  A    between atoms: C_5  and  N_6
REMARK    2  A    between atoms: C_7  and  C_9
REMARK    3  A    between atoms: C_12  and  C_13
REMARK                            x       y       z     vdW  Elec       q    Type
REMARK                         _______ _______ _______ _____ _____    ______ ____
ROOT
ATOM      1  N   UNL     1      16.376  -8.509  26.782  0.00  0.00    +0.000 NA
ATOM      2  C   UNL     1      15.301  -8.502  25.858  0.00  0.00    +0.000 C 
ATOM      3  O   UNL     1      15.481  -8.022  24.710  0.00  0.00    +0.000 OA
ENDROOT
BRANCH   1   8
ATOM      4  C   UNL     1      21.451  -6.528  25.157  0.00  0.00    +0.000 C 
ATOM      5  C   UNL     1      20.111  -7.008  25.597  0.00  0.00    +0.000 A 
ATOM      6  C   UNL     1      19.801  -8.337  25.386  0.00  0.00    +0.000 A 
ATOM      7  C   UNL     1      18.558  -8.790  25.793  0.00  0.00    +0.000 A 
ATOM      8  C   UNL     1      17.629  -7.974  26.393  0.00  0.00    +0.000 A 
ATOM      9  C   UNL     1      17.943  -6.646  26.601  0.00  0.00    +0.000 A 
ATOM     10  O   UNL     1      17.013  -5.810  27.207  0.00  0.00    +0.000 OA
ATOM     11  C   UNL     1      19.190  -6.158  26.202  0.00  0.00    +0.000 A 
ENDBRANCH   1   8
BRANCH   2  12
ATOM     12  C   UNL     1      14.011  -9.051  26.255  0.00  0.00    +0.000 A 
ATOM     13  C   UNL     1      13.926 -10.305  26.792  0.00  0.00    +0.000 A 
ATOM     14  C   UNL     1      12.710 -10.831  27.170  0.00  0.00    +0.000 A 
ATOM     15  C   UNL     1      11.557 -10.077  27.000  0.00  0.00    +0.000 A 
ATOM     16  C   UNL     1      11.656  -8.818  26.460  0.00  0.00    +0.000 A 
ATOM     17  C   UNL     1      12.872  -8.306  26.088  0.00  0.00    +0.000 A 
BRANCH  15  18
ATOM     18  C   UNL     1      10.273 -10.692  27.424  0.00  0.00    +0.000 C 
ATOM     19 CL   UNL     1       8.889  -9.693  26.937  0.00  0.00    +0.000 Cl
ENDBRANCH  15  18
ENDBRANCH   2  12
TORSDOF 3
ENDMDL
