MODEL 1
REMARK VINA RESULT:      -7.4      0.000      0.000
REMARK  Name = 
REMARK  2 active torsions:
REMARK  status: ('A' for Active; 'I' for Inactive)
REMARK    1  A    between atoms: C_2  and  C_4
REMARK    2  A    between atoms: C_6  and  C_7
REMARK                            x       y       z     vdW  Elec       q    Type
REMARK                         _______ _______ _______ _____ _____    ______ ____
ROOT
ATOM      1  C   UNL     1      28.230  24.204  23.953  0.00  0.00    +0.000 A 
ATOM      2  C   UNL     1      27.718  24.532  25.191  0.00  0.00    +0.000 A 
ATOM      3  C   UNL     1      26.408  24.260  25.530  0.00  0.00    +0.000 A 
ATOM      4  N   UNL     1      25.639  23.665  24.620  0.00  0.00    +0.000 NA
ATOM      5  C   UNL     1      26.128  23.332  23.388  0.00  0.00    +0.000 A 
ATOM      6  N   UNL     1      25.296  22.696  22.424  0.00  0.00    +0.000 NA
ATOM      7  N   UNL     1      27.420  23.603  23.061  0.00  0.00    +0.000 N 
ATOM      8  O   UNL     1      27.904  23.259  21.801  0.00  0.00    +0.000 OA
ENDROOT
BRANCH   3   9
ATOM      9  C   UNL     1      25.938  24.636  26.861  0.00  0.00    +0.000 A 
ATOM     10  C   UNL     1      25.076  25.693  27.062  0.00  0.00    +0.000 A 
ATOM     11  C   UNL     1      24.649  26.024  28.332  0.00  0.00    +0.000 A 
ATOM     12  C   UNL     1      25.051  25.328  29.453  0.00  0.00    +0.000 A 
ATOM     13  F   UNL     1      24.621  25.667  30.697  0.00  0.00    +0.000 F 
ATOM     14  C   UNL     1      25.913  24.268  29.257  0.00  0.00    +0.000 A 
ATOM     15  C   UNL     1      26.335  23.550  30.363  0.00  0.00    +0.000 A 
ATOM     16  C   UNL     1      27.197  22.500  30.124  0.00  0.00    +0.000 A 
ATOM     17  C   UNL     1      27.632  22.158  28.863  0.00  0.00    +0.000 A 
ATOM     18  C   UNL     1      27.208  22.877  27.767  0.00  0.00    +0.000 A 
ATOM     19  C   UNL     1      26.345  23.934  27.979  0.00  0.00    +0.000 A 
ENDBRANCH   3   9
BRANCH   1  21
ATOM     20  C   UNL     1      30.561  23.530  24.298  0.00  0.00    +0.000 C 
ATOM     21  C   UNL     1      29.642  24.499  23.589  0.00  0.00    +0.000 C 
ATOM     22  C   UNL     1      30.019  25.927  23.890  0.00  0.00    +0.000 C 
ENDBRANCH   1  21
TORSDOF 2
ENDMDL
MODEL 2
REMARK VINA RESULT:      -7.1      0.820      2.369
REMARK  Name = 
REMARK  2 active torsions:
REMARK  status: ('A' for Active; 'I' for Inactive)
REMARK    1  A    between atoms: C_2  and  C_4
REMARK    2  A    between atoms: C_6  and  C_7
REMARK                            x       y       z     vdW  Elec       q    Type
REMARK                         _______ _______ _______ _____ _____    ______ ____
ROOT
ATOM      1  C   UNL     1      28.332  23.853  23.787  0.00  0.00    +0.000 A 
ATOM      2  C   UNL     1      28.105  23.869  25.148  0.00  0.00    +0.000 A 
ATOM      3  C   UNL     1      26.890  23.496  25.686  0.00  0.00    +0.000 A 
ATOM      4  N   UNL     1      25.927  23.115  24.847  0.00  0.00    +0.000 NA
ATOM      5  C   UNL     1      26.133  23.092  23.496  0.00  0.00    +0.000 A 
ATOM      6  N   UNL     1      25.097  22.683  22.611  0.00  0.00    +0.000 NA
ATOM      7  N   UNL     1      27.334  23.461  22.974  0.00  0.00    +0.000 N 
ATOM      8  O   UNL     1      27.528  23.433  21.595  0.00  0.00    +0.000 OA
ENDROOT
BRANCH   3   9
ATOM      9  C   UNL     1      26.724  23.538  27.136  0.00  0.00    +0.000 A 
ATOM     10  C   UNL     1      27.357  22.644  27.972  0.00  0.00    +0.000 A 
ATOM     11  C   UNL     1      27.181  22.709  29.340  0.00  0.00    +0.000 A 
ATOM     12  C   UNL     1      26.378  23.658  29.938  0.00  0.00    +0.000 A 
ATOM     13  F   UNL     1      26.215  23.708  31.286  0.00  0.00    +0.000 F 
ATOM     14  C   UNL     1      25.742  24.557  29.105  0.00  0.00    +0.000 A 
ATOM     15  C   UNL     1      24.929  25.520  29.676  0.00  0.00    +0.000 A 
ATOM     16  C   UNL     1      24.311  26.398  28.809  0.00  0.00    +0.000 A 
ATOM     17  C   UNL     1      24.477  26.345  27.443  0.00  0.00    +0.000 A 
ATOM     18  C   UNL     1      25.288  25.384  26.882  0.00  0.00    +0.000 A 
ATOM     19  C   UNL     1      25.918  24.491  27.728  0.00  0.00    +0.000 A 
ENDBRANCH   3   9
BRANCH   1  21
ATOM     20  C   UNL     1      30.761  23.780  24.110  0.00  0.00    +0.000 C 
ATOM     21  C   UNL     1      29.643  24.256  23.210  0.00  0.00    +0.000 C 
ATOM     22  C   UNL     1      29.727  25.742  22.976  0.00  0.00    +0.000 C 
ENDBRANCH   1  21
TORSDOF 2
ENDMDL
MODEL 3
REMARK VINA RESULT:      -6.8      3.732      6.155
REMARK  Name = 
REMARK  2 active torsions:
REMARK  status: ('A' for Active; 'I' for Inactive)
REMARK    1  A    between atoms: C_2  and  C_4
REMARK    2  A    between atoms: C_6  and  C_7
REMARK                            x       y       z     vdW  Elec       q    Type
REMARK                         _______ _______ _______ _____ _____    ______ ____
ROOT
ATOM      1  C   UNL     1      25.720  25.584  29.009  0.00  0.00    +0.000 A 
ATOM      2  C   UNL     1      26.122  25.282  27.723  0.00  0.00    +0.000 A 
ATOM      3  C   UNL     1      26.504  24.006  27.362  0.00  0.00    +0.000 A 
ATOM      4  N   UNL     1      26.475  23.058  28.298  0.00  0.00    +0.000 NA
ATOM      5  C   UNL     1      26.080  23.337  29.577  0.00  0.00    +0.000 A 
ATOM      6  N   UNL     1      26.054  22.315  30.567  0.00  0.00    +0.000 NA
ATOM      7  N   UNL     1      25.705  24.597  29.925  0.00  0.00    +0.000 N 
ATOM      8  O   UNL     1      25.307  24.866  31.232  0.00  0.00    +0.000 OA
ENDROOT
BRANCH   3   9
ATOM      9  C   UNL     1      26.915  23.764  25.983  0.00  0.00    +0.000 A 
ATOM     10  C   UNL     1      26.040  23.888  24.924  0.00  0.00    +0.000 A 
ATOM     11  C   UNL     1      26.460  23.652  23.630  0.00  0.00    +0.000 A 
ATOM     12  C   UNL     1      27.755  23.288  23.327  0.00  0.00    +0.000 A 
ATOM     13  F   UNL     1      28.152  23.059  22.047  0.00  0.00    +0.000 F 
ATOM     14  C   UNL     1      28.636  23.163  24.383  0.00  0.00    +0.000 A 
ATOM     15  C   UNL     1      29.943  22.798  24.110  0.00  0.00    +0.000 A 
ATOM     16  C   UNL     1      30.790  22.684  25.193  0.00  0.00    +0.000 A 
ATOM     17  C   UNL     1      30.386  22.915  26.489  0.00  0.00    +0.000 A 
ATOM     18  C   UNL     1      29.084  23.278  26.753  0.00  0.00    +0.000 A 
ATOM     19  C   UNL     1      28.215  23.399  25.687  0.00  0.00    +0.000 A 
ENDBRANCH   3   9
BRANCH   1  21
ATOM     20  C   UNL     1      23.847  27.163  29.073  0.00  0.00    +0.000 C 
ATOM     21  C   UNL     1      25.310  26.960  29.396  0.00  0.00    +0.000 C 
ATOM     22  C   UNL     1      26.165  28.013  28.739  0.00  0.00    +0.000 C 
ENDBRANCH   1  21
TORSDOF 2
ENDMDL
MODEL 4
REMARK VINA RESULT:      -6.7     17.715     20.083
REMARK  Name = 
REMARK  2 active torsions:
REMARK  status: ('A' for Active; 'I' for Inactive)
REMARK    1  A    between atoms: C_2  and  C_4
REMARK    2  A    between atoms: C_6  and  C_7
REMARK                            x       y       z     vdW  Elec       q    Type
REMARK                         _______ _______ _______ _____ _____    ______ ____
ROOT
ATOM      1  C   UNL     1      17.423   9.751  39.330  0.00  0.00    +0.000 A 
ATOM      2  C   UNL     1      18.747   9.830  38.948  0.00  0.00    +0.000 A 
ATOM      3  C   UNL     1      19.152  10.626  37.896  0.00  0.00    +0.000 A 
ATOM      4  N   UNL     1      18.222  11.327  37.249  0.00  0.00    +0.000 NA
ATOM      5  C   UNL     1      16.906  11.262  37.612  0.00  0.00    +0.000 A 
ATOM      6  N   UNL     1      15.922  12.015  36.913  0.00  0.00    +0.000 NA
ATOM      7  N   UNL     1      16.514  10.475  38.651  0.00  0.00    +0.000 N 
ATOM      8  O   UNL     1      15.169  10.419  39.009  0.00  0.00    +0.000 OA
ENDROOT
BRANCH   3   9
ATOM      9  C   UNL     1      20.571  10.658  37.550  0.00  0.00    +0.000 A 
ATOM     10  C   UNL     1      21.145   9.719  36.720  0.00  0.00    +0.000 A 
ATOM     11  C   UNL     1      22.489   9.777  36.412  0.00  0.00    +0.000 A 
ATOM     12  C   UNL     1      23.320  10.761  36.906  0.00  0.00    +0.000 A 
ATOM     13  F   UNL     1      24.642  10.803  36.593  0.00  0.00    +0.000 F 
ATOM     14  C   UNL     1      22.751  11.704  37.737  0.00  0.00    +0.000 A 
ATOM     15  C   UNL     1      23.559  12.703  38.250  0.00  0.00    +0.000 A 
ATOM     16  C   UNL     1      22.952  13.626  39.077  0.00  0.00    +0.000 A 
ATOM     17  C   UNL     1      21.612  13.581  39.394  0.00  0.00    +0.000 A 
ATOM     18  C   UNL     1      20.813  12.583  38.880  0.00  0.00    +0.000 A 
ATOM     19  C   UNL     1      21.397  11.647  38.049  0.00  0.00    +0.000 A 
ENDBRANCH   3   9
BRANCH   1  21
ATOM     20  C   UNL     1      17.144   9.650  41.763  0.00  0.00    +0.000 C 
ATOM     21  C   UNL     1      16.988   8.892  40.464  0.00  0.00    +0.000 C 
ATOM     22  C   UNL     1      17.734   7.583  40.503  0.00  0.00    +0.000 C 
ENDBRANCH   1  21
TORSDOF 2
ENDMDL
MODEL 5
REMARK VINA RESULT:      -6.7     31.313     32.975
REMARK  Name = 
REMARK  2 active torsions:
REMARK  status: ('A' for Active; 'I' for Inactive)
REMARK    1  A    between atoms: C_2  and  C_4
REMARK    2  A    between atoms: C_6  and  C_7
REMARK                            x       y       z     vdW  Elec       q    Type
REMARK                         _______ _______ _______ _____ _____    ______ ____
ROOT
ATOM      1  C   UNL     1      19.304  -7.995  26.712  0.00  0.00    +0.000 A 
ATOM      2  C   UNL     1      20.462  -8.073  25.965  0.00  0.00    +0.000 A 
ATOM      3  C   UNL     1      20.998  -6.967  25.337  0.00  0.00    +0.000 A 
ATOM      4  N   UNL     1      20.361  -5.804  25.471  0.00  0.00    +0.000 NA
ATOM      5  C   UNL     1      19.213  -5.706  26.206  0.00  0.00    +0.000 A 
ATOM      6  N   UNL     1      18.542  -4.458  26.342  0.00  0.00    +0.000 NA
ATOM      7  N   UNL     1      18.691  -6.801  26.822  0.00  0.00    +0.000 N 
ATOM      8  O   UNL     1      17.520  -6.686  27.568  0.00  0.00    +0.000 OA
ENDROOT
BRANCH   3   9
ATOM      9  C   UNL     1      22.226  -7.127  24.565  0.00  0.00    +0.000 A 
ATOM     10  C   UNL     1      23.344  -6.354  24.796  0.00  0.00    +0.000 A 
ATOM     11  C   UNL     1      24.492  -6.530  24.049  0.00  0.00    +0.000 A 
ATOM     12  C   UNL     1      24.585  -7.475  23.048  0.00  0.00    +0.000 A 
ATOM     13  F   UNL     1      25.722  -7.635  22.322  0.00  0.00    +0.000 F 
ATOM     14  C   UNL     1      23.470  -8.253  22.813  0.00  0.00    +0.000 A 
ATOM     15  C   UNL     1      23.533  -9.209  21.814  0.00  0.00    +0.000 A 
ATOM     16  C   UNL     1      22.397  -9.965  21.611  0.00  0.00    +0.000 A 
ATOM     17  C   UNL     1      21.244  -9.801  22.348  0.00  0.00    +0.000 A 
ATOM     18  C   UNL     1      21.188  -8.847  23.340  0.00  0.00    +0.000 A 
ATOM     19  C   UNL     1      22.313  -8.076  23.564  0.00  0.00    +0.000 A 
ENDBRANCH   3   9
BRANCH   1  21
ATOM     20  C   UNL     1      19.589  -9.565  28.571  0.00  0.00    +0.000 C 
ATOM     21  C   UNL     1      18.728  -9.189  27.386  0.00  0.00    +0.000 C 
ATOM     22  C   UNL     1      18.564 -10.350  26.441  0.00  0.00    +0.000 C 
ENDBRANCH   1  21
TORSDOF 2
ENDMDL
MODEL 6
REMARK VINA RESULT:      -6.6     33.054     34.725
REMARK  Name = 
REMARK  2 active torsions:
REMARK  status: ('A' for Active; 'I' for Inactive)
REMARK    1  A    between atoms: C_2  and  C_4
REMARK    2  A    between atoms: C_6  and  C_7
REMARK                            x       y       z     vdW  Elec       q    Type
REMARK                         _______ _______ _______ _____ _____    ______ ____
ROOT
ATOM      1  C   UNL     1      17.166 -10.657  29.783  0.00  0.00    +0.000 A 
ATOM      2  C   UNL     1      17.691  -9.541  29.162  0.00  0.00    +0.000 A 
ATOM      3  C   UNL     1      17.457  -9.274  27.829  0.00  0.00    +0.000 A 
ATOM      4  N   UNL     1      16.701 -10.132  27.144  0.00  0.00    +0.000 NA
ATOM      5  C   UNL     1      16.172 -11.241  27.741  0.00  0.00    +0.000 A 
ATOM      6  N   UNL     1      15.365 -12.149  26.999  0.00  0.00    +0.000 NA
ATOM      7  N   UNL     1      16.407 -11.498  29.056  0.00  0.00    +0.000 N 
ATOM      8  O   UNL     1      15.862 -12.634  29.649  0.00  0.00    +0.000 OA
ENDROOT
BRANCH   3   9
ATOM      9  C   UNL     1      18.046  -8.074  27.243  0.00  0.00    +0.000 A 
ATOM     10  C   UNL     1      17.412  -6.850  27.286  0.00  0.00    +0.000 A 
ATOM     11  C   UNL     1      17.995  -5.732  26.723  0.00  0.00    +0.000 A 
ATOM     12  C   UNL     1      19.224  -5.775  26.097  0.00  0.00    +0.000 A 
ATOM     13  F   UNL     1      19.783  -4.665  25.547  0.00  0.00    +0.000 F 
ATOM     14  C   UNL     1      19.864  -6.997  26.052  0.00  0.00    +0.000 A 
ATOM     15  C   UNL     1      21.098  -7.071  25.430  0.00  0.00    +0.000 A 
ATOM     16  C   UNL     1      21.703  -8.310  25.406  0.00  0.00    +0.000 A 
ATOM     17  C   UNL     1      21.134  -9.434  25.963  0.00  0.00    +0.000 A 
ATOM     18  C   UNL     1      19.905  -9.353  26.580  0.00  0.00    +0.000 A 
ATOM     19  C   UNL     1      19.277  -8.123  26.618  0.00  0.00    +0.000 A 
ENDBRANCH   3   9
BRANCH   1  21
ATOM     20  C   UNL     1      16.346 -10.296  32.064  0.00  0.00    +0.000 C 
ATOM     21  C   UNL     1      17.421 -10.943  31.220  0.00  0.00    +0.000 C 
ATOM     22  C   UNL     1      18.795 -10.499  31.653  0.00  0.00    +0.000 C 
ENDBRANCH   1  21
TORSDOF 2
ENDMDL
MODEL 7
REMARK VINA RESULT:      -6.6     28.430     30.436
REMARK  Name = 
REMARK  2 active torsions:
REMARK  status: ('A' for Active; 'I' for Inactive)
REMARK    1  A    between atoms: C_2  and  C_4
REMARK    2  A    between atoms: C_6  and  C_7
REMARK                            x       y       z     vdW  Elec       q    Type
REMARK                         _______ _______ _______ _____ _____    ______ ____
ROOT
ATOM      1  C   UNL     1      34.059  -2.001  34.402  0.00  0.00    +0.000 A 
ATOM      2  C   UNL     1      33.279  -2.929  33.741  0.00  0.00    +0.000 A 
ATOM      3  C   UNL     1      33.439  -4.285  33.939  0.00  0.00    +0.000 A 
ATOM      4  N   UNL     1      34.379  -4.684  34.796  0.00  0.00    +0.000 NA
ATOM      5  C   UNL     1      35.161  -3.781  35.460  0.00  0.00    +0.000 A 
ATOM      6  N   UNL     1      36.161  -4.219  36.372  0.00  0.00    +0.000 NA
ATOM      7  N   UNL     1      34.997  -2.445  35.259  0.00  0.00    +0.000 N 
ATOM      8  O   UNL     1      35.802  -1.537  35.942  0.00  0.00    +0.000 OA
ENDROOT
BRANCH   3   9
ATOM      9  C   UNL     1      32.576  -5.205  33.205  0.00  0.00    +0.000 A 
ATOM     10  C   UNL     1      31.415  -5.713  33.749  0.00  0.00    +0.000 A 
ATOM     11  C   UNL     1      30.619  -6.582  33.029  0.00  0.00    +0.000 A 
ATOM     12  C   UNL     1      30.933  -6.983  31.747  0.00  0.00    +0.000 A 
ATOM     13  F   UNL     1      30.138  -7.839  31.053  0.00  0.00    +0.000 F 
ATOM     14  C   UNL     1      32.093  -6.477  31.197  0.00  0.00    +0.000 A 
ATOM     15  C   UNL     1      32.435  -6.862  29.912  0.00  0.00    +0.000 A 
ATOM     16  C   UNL     1      33.602  -6.334  29.400  0.00  0.00    +0.000 A 
ATOM     17  C   UNL     1      34.407  -5.467  30.106  0.00  0.00    +0.000 A 
ATOM     18  C   UNL     1      34.061  -5.088  31.385  0.00  0.00    +0.000 A 
ATOM     19  C   UNL     1      32.896  -5.603  31.921  0.00  0.00    +0.000 A 
ENDBRANCH   3   9
BRANCH   1  21
ATOM     20  C   UNL     1      32.455  -0.150  34.485  0.00  0.00    +0.000 C 
ATOM     21  C   UNL     1      33.885  -0.540  34.186  0.00  0.00    +0.000 C 
ATOM     22  C   UNL     1      34.285  -0.120  32.794  0.00  0.00    +0.000 C 
ENDBRANCH   1  21
TORSDOF 2
ENDMDL
MODEL 8
REMARK VINA RESULT:      -6.6     33.115     34.733
REMARK  Name = 
REMARK  2 active torsions:
REMARK  status: ('A' for Active; 'I' for Inactive)
REMARK    1  A    between atoms: C_2  and  C_4
REMARK    2  A    between atoms: C_6  and  C_7
REMARK                            x       y       z     vdW  Elec       q    Type
REMARK                         _______ _______ _______ _____ _____    ______ ____
ROOT
ATOM      1  C   UNL     1      16.269 -10.832  28.313  0.00  0.00    +0.000 A 
ATOM      2  C   UNL     1      16.873  -9.794  27.633  0.00  0.00    +0.000 A 
ATOM      3  C   UNL     1      17.820  -8.988  28.231  0.00  0.00    +0.000 A 
ATOM      4  N   UNL     1      18.143  -9.239  29.499  0.00  0.00    +0.000 NA
ATOM      5  C   UNL     1      17.556 -10.263  30.189  0.00  0.00    +0.000 A 
ATOM      6  N   UNL     1      17.909 -10.521  31.543  0.00  0.00    +0.000 NA
ATOM      7  N   UNL     1      16.623 -11.053  29.593  0.00  0.00    +0.000 N 
ATOM      8  O   UNL     1      16.034 -12.092  30.309  0.00  0.00    +0.000 OA
ENDROOT
BRANCH   3   9
ATOM      9  C   UNL     1      18.416  -7.909  27.447  0.00  0.00    +0.000 A 
ATOM     10  C   UNL     1      17.836  -6.662  27.357  0.00  0.00    +0.000 A 
ATOM     11  C   UNL     1      18.424  -5.662  26.608  0.00  0.00    +0.000 A 
ATOM     12  C   UNL     1      19.605  -5.850  25.920  0.00  0.00    +0.000 A 
ATOM     13  F   UNL     1      20.170  -4.855  25.187  0.00  0.00    +0.000 F 
ATOM     14  C   UNL     1      20.190  -7.097  26.007  0.00  0.00    +0.000 A 
ATOM     15  C   UNL     1      21.376  -7.316  25.327  0.00  0.00    +0.000 A 
ATOM     16  C   UNL     1      21.928  -8.576  25.440  0.00  0.00    +0.000 A 
ATOM     17  C   UNL     1      21.353  -9.583  26.183  0.00  0.00    +0.000 A 
ATOM     18  C   UNL     1      20.173  -9.358  26.857  0.00  0.00    +0.000 A 
ATOM     19  C   UNL     1      19.599  -8.105  26.761  0.00  0.00    +0.000 A 
ENDBRANCH   3   9
BRANCH   1  21
ATOM     20  C   UNL     1      15.690 -12.042  26.262  0.00  0.00    +0.000 C 
ATOM     21  C   UNL     1      15.248 -11.699  27.667  0.00  0.00    +0.000 C 
ATOM     22  C   UNL     1      13.881 -11.064  27.668  0.00  0.00    +0.000 C 
ENDBRANCH   1  21
TORSDOF 2
ENDMDL
MODEL 9
REMARK VINA RESULT:      -6.4      1.868      2.645
REMARK  Name = 
REMARK  2 active torsions:
REMARK  status: ('A' for Active; 'I' for Inactive)
REMARK    1  A    between atoms: C_2  and  C_4
REMARK    2  A    between atoms: C_6  and  C_7
REMARK                            x       y       z     vdW  Elec       q    Type
REMARK                         _______ _______ _______ _____ _____    ______ ____
ROOT
ATOM      1  C   UNL     1      27.787  25.214  23.501  0.00  0.00    +0.000 A 
ATOM      2  C   UNL     1      27.886  24.878  24.836  0.00  0.00    +0.000 A 
ATOM      3  C   UNL     1      27.162  23.836  25.378  0.00  0.00    +0.000 A 
ATOM      4  N   UNL     1      26.353  23.151  24.570  0.00  0.00    +0.000 NA
ATOM      5  C   UNL     1      26.241  23.469  23.245  0.00  0.00    +0.000 A 
ATOM      6  N   UNL     1      25.373  22.731  22.393  0.00  0.00    +0.000 NA
ATOM      7  N   UNL     1      26.958  24.498  22.718  0.00  0.00    +0.000 N 
ATOM      8  O   UNL     1      26.832  24.811  21.367  0.00  0.00    +0.000 OA
ENDROOT
BRANCH   3   9
ATOM      9  C   UNL     1      27.321  23.539  26.798  0.00  0.00    +0.000 A 
ATOM     10  C   UNL     1      26.278  23.654  27.693  0.00  0.00    +0.000 A 
ATOM     11  C   UNL     1      26.459  23.365  29.030  0.00  0.00    +0.000 A 
ATOM     12  C   UNL     1      27.673  22.951  29.540  0.00  0.00    +0.000 A 
ATOM     13  F   UNL     1      27.834  22.672  30.860  0.00  0.00    +0.000 F 
ATOM     14  C   UNL     1      28.720  22.833  28.649  0.00  0.00    +0.000 A 
ATOM     15  C   UNL     1      29.950  22.421  29.131  0.00  0.00    +0.000 A 
ATOM     16  C   UNL     1      30.971  22.316  28.208  0.00  0.00    +0.000 A 
ATOM     17  C   UNL     1      30.805  22.601  26.871  0.00  0.00    +0.000 A 
ATOM     18  C   UNL     1      29.578  23.012  26.398  0.00  0.00    +0.000 A 
ATOM     19  C   UNL     1      28.539  23.124  27.302  0.00  0.00    +0.000 A 
ENDBRANCH   3   9
BRANCH   1  21
ATOM     20  C   UNL     1      29.957  26.354  23.516  0.00  0.00    +0.000 C 
ATOM     21  C   UNL     1      28.567  26.339  22.919  0.00  0.00    +0.000 C 
ATOM     22  C   UNL     1      27.878  27.666  23.108  0.00  0.00    +0.000 C 
ENDBRANCH   1  21
TORSDOF 2
ENDMDL
MODEL 10
REMARK VINA RESULT:      -6.4     28.751     30.762
REMARK  Name = 
REMARK  2 active torsions:
REMARK  status: ('A' for Active; 'I' for Inactive)
REMARK    1  A    between atoms: C_2  and  C_4
REMARK    2  A    between atoms: C_6  and  C_7
REMARK                            x       y       z     vdW  Elec       q    Type
REMARK                         _______ _______ _______ _____ _____    ______ ____
ROOT
ATOM      1  C   UNL     1      33.943  -2.388  34.451  0.00  0.00    +0.000 A 
ATOM      2  C   UNL     1      33.647  -3.174  33.356  0.00  0.00    +0.000 A 
ATOM      3  C   UNL     1      33.873  -4.535  33.357  0.00  0.00    +0.000 A 
ATOM      4  N   UNL     1      34.392  -5.081  34.457  0.00  0.00    +0.000 NA
ATOM      5  C   UNL     1      34.691  -4.320  35.551  0.00  0.00    +0.000 A 
ATOM      6  N   UNL     1      35.245  -4.914  36.720  0.00  0.00    +0.000 NA
ATOM      7  N   UNL     1      34.465  -2.978  35.543  0.00  0.00    +0.000 N 
ATOM      8  O   UNL     1      34.776  -2.215  36.666  0.00  0.00    +0.000 OA
ENDROOT
BRANCH   3   9
ATOM      9  C   UNL     1      33.534  -5.301  32.161  0.00  0.00    +0.000 A 
ATOM     10  C   UNL     1      34.363  -5.348  31.061  0.00  0.00    +0.000 A 
ATOM     11  C   UNL     1      34.015  -6.082  29.944  0.00  0.00    +0.000 A 
ATOM     12  C   UNL     1      32.838  -6.798  29.868  0.00  0.00    +0.000 A 
ATOM     13  F   UNL     1      32.510  -7.515  28.761  0.00  0.00    +0.000 F 
ATOM     14  C   UNL     1      32.004  -6.755  30.966  0.00  0.00    +0.000 A 
ATOM     15  C   UNL     1      30.816  -7.464  30.919  0.00  0.00    +0.000 A 
ATOM     16  C   UNL     1      30.011  -7.394  32.037  0.00  0.00    +0.000 A 
ATOM     17  C   UNL     1      30.345  -6.666  33.158  0.00  0.00    +0.000 A 
ATOM     18  C   UNL     1      31.529  -5.963  33.198  0.00  0.00    +0.000 A 
ATOM     19  C   UNL     1      32.354  -6.016  32.091  0.00  0.00    +0.000 A 
ENDBRANCH   3   9
BRANCH   1  21
ATOM     20  C   UNL     1      32.248  -0.647  34.777  0.00  0.00    +0.000 C 
ATOM     21  C   UNL     1      33.699  -0.920  34.448  0.00  0.00    +0.000 C 
ATOM     22  C   UNL     1      34.090  -0.284  33.139  0.00  0.00    +0.000 C 
ENDBRANCH   1  21
TORSDOF 2
ENDMDL
