MODEL 1
REMARK VINA RESULT:      -6.6      0.000      0.000
REMARK  Name = 
REMARK  4 active torsions:
REMARK  status: ('A' for Active; 'I' for Inactive)
REMARK    1  A    between atoms: C_2  and  C_14
REMARK    2  A    between atoms: N_3  and  C_4
REMARK    3  A    between atoms: C_4  and  N_6
REMARK    4  A    between atoms: N_6  and  C_7
REMARK                            x       y       z     vdW  Elec       q    Type
REMARK                         _______ _______ _______ _____ _____    ______ ____
ROOT
ATOM      1  C   UNL     1      15.221  11.931  35.259  0.00  0.00    +0.000 C 
ATOM      2  S   UNL     1      14.078  12.415  36.314  0.00  0.00    +0.000 S 
ENDROOT
BRANCH   1   5
ATOM      3  O   UNL     1      16.606   9.906  36.553  0.00  0.00    +0.000 OA
ATOM      4  C   UNL     1      17.247  10.970  36.294  0.00  0.00    +0.000 C 
ATOM      5  N   UNL     1      16.586  12.031  35.636  0.00  0.00    +0.000 NA
BRANCH   4   6
ATOM      6  C   UNL     1      18.661  11.014  36.709  0.00  0.00    +0.000 C 
ATOM      7  C   UNL     1      18.750  11.533  38.108  0.00  0.00    +0.000 C 
ATOM      8  C   UNL     1      19.510  10.657  39.048  0.00  0.00    +0.000 C 
ATOM      9  C   UNL     1      20.867  10.259  38.507  0.00  0.00    +0.000 C 
ATOM     10  C   UNL     1      20.791   9.873  37.045  0.00  0.00    +0.000 C 
ATOM     11  C   UNL     1      19.359   9.702  36.588  0.00  0.00    +0.000 C 
ENDBRANCH   4   6
ENDBRANCH   1   5
BRANCH   1  12
ATOM     12  N   UNL     1      14.828  11.423  33.994  0.00  0.00    +0.000 NA
BRANCH  12  13
ATOM     13  C   UNL     1      14.971  12.196  32.827  0.00  0.00    +0.000 A 
ATOM     14  C   UNL     1      14.179  13.292  32.529  0.00  0.00    +0.000 A 
ATOM     15  C   UNL     1      14.351  14.027  31.370  0.00  0.00    +0.000 A 
ATOM     16  C   UNL     1      15.328  13.670  30.485  0.00  0.00    +0.000 A 
ATOM     17  C   UNL     1      16.123  12.593  30.754  0.00  0.00    +0.000 A 
ATOM     18  C   UNL     1      15.952  11.861  31.907  0.00  0.00    +0.000 A 
ATOM     19  O   UNL     1      16.761  10.757  32.194  0.00  0.00    +0.000 OA
ENDBRANCH  12  13
ENDBRANCH   1  12
TORSDOF 4
ENDMDL
MODEL 2
REMARK VINA RESULT:      -6.1     20.515     23.229
REMARK  Name = 
REMARK  4 active torsions:
REMARK  status: ('A' for Active; 'I' for Inactive)
REMARK    1  A    between atoms: C_2  and  C_14
REMARK    2  A    between atoms: N_3  and  C_4
REMARK    3  A    between atoms: C_4  and  N_6
REMARK    4  A    between atoms: N_6  and  C_7
REMARK                            x       y       z     vdW  Elec       q    Type
REMARK                         _______ _______ _______ _____ _____    ______ ____
ROOT
ATOM      1  C   UNL     1      33.089  -3.628  34.043  0.00  0.00    +0.000 C 
ATOM      2  S   UNL     1      32.041  -4.557  34.875  0.00  0.00    +0.000 S 
ENDROOT
BRANCH   1   5
ATOM      3  O   UNL     1      34.741  -5.706  33.239  0.00  0.00    +0.000 OA
ATOM      4  C   UNL     1      34.200  -5.012  32.326  0.00  0.00    +0.000 C 
ATOM      5  N   UNL     1      33.350  -3.941  32.683  0.00  0.00    +0.000 NA
BRANCH   4   6
ATOM      6  C   UNL     1      34.509  -5.386  30.933  0.00  0.00    +0.000 C 
ATOM      7  C   UNL     1      35.266  -6.674  30.923  0.00  0.00    +0.000 C 
ATOM      8  C   UNL     1      34.677  -7.734  30.053  0.00  0.00    +0.000 C 
ATOM      9  C   UNL     1      34.382  -7.243  28.651  0.00  0.00    +0.000 C 
ATOM     10  C   UNL     1      33.745  -5.869  28.667  0.00  0.00    +0.000 C 
ATOM     11  C   UNL     1      33.304  -5.475  30.059  0.00  0.00    +0.000 C 
ENDBRANCH   4   6
ENDBRANCH   1   5
BRANCH   1  12
ATOM     12  N   UNL     1      33.714  -2.533  34.694  0.00  0.00    +0.000 NA
BRANCH  12  13
ATOM     13  C   UNL     1      33.630  -1.232  34.164  0.00  0.00    +0.000 A 
ATOM     14  C   UNL     1      34.388  -0.789  33.092  0.00  0.00    +0.000 A 
ATOM     15  C   UNL     1      34.277   0.499  32.600  0.00  0.00    +0.000 A 
ATOM     16  C   UNL     1      33.397   1.368  33.179  0.00  0.00    +0.000 A 
ATOM     17  C   UNL     1      32.638   0.956  34.236  0.00  0.00    +0.000 A 
ATOM     18  C   UNL     1      32.748  -0.325  34.727  0.00  0.00    +0.000 A 
ATOM     19  O   UNL     1      31.975  -0.757  35.809  0.00  0.00    +0.000 OA
ENDBRANCH  12  13
ENDBRANCH   1  12
TORSDOF 4
ENDMDL
MODEL 3
REMARK VINA RESULT:      -6.1      1.643      6.775
REMARK  Name = 
REMARK  4 active torsions:
REMARK  status: ('A' for Active; 'I' for Inactive)
REMARK    1  A    between atoms: C_2  and  C_14
REMARK    2  A    between atoms: N_3  and  C_4
REMARK    3  A    between atoms: C_4  and  N_6
REMARK    4  A    between atoms: N_6  and  C_7
REMARK                            x       y       z     vdW  Elec       q    Type
REMARK                         _______ _______ _______ _____ _____    ______ ____
ROOT
ATOM      1  C   UNL     1      14.746  12.091  36.686  0.00  0.00    +0.000 C 
ATOM      2  S   UNL     1      13.394  11.280  37.097  0.00  0.00    +0.000 S 
ENDROOT
BRANCH   1   5
ATOM      3  O   UNL     1      15.462  10.764  34.357  0.00  0.00    +0.000 OA
ATOM      4  C   UNL     1      15.177  11.996  34.256  0.00  0.00    +0.000 C 
ATOM      5  N   UNL     1      14.807  12.717  35.413  0.00  0.00    +0.000 NA
BRANCH   4   6
ATOM      6  C   UNL     1      15.258  12.591  32.908  0.00  0.00    +0.000 C 
ATOM      7  C   UNL     1      15.557  11.518  31.912  0.00  0.00    +0.000 C 
ATOM      8  C   UNL     1      14.602  11.451  30.766  0.00  0.00    +0.000 C 
ATOM      9  C   UNL     1      14.391  12.795  30.102  0.00  0.00    +0.000 C 
ATOM     10  C   UNL     1      14.233  13.900  31.124  0.00  0.00    +0.000 C 
ATOM     11  C   UNL     1      14.034  13.348  32.517  0.00  0.00    +0.000 C 
ENDBRANCH   4   6
ENDBRANCH   1   5
BRANCH   1  12
ATOM     12  N   UNL     1      15.826  12.152  37.604  0.00  0.00    +0.000 NA
BRANCH  12  13
ATOM     13  C   UNL     1      16.830  11.166  37.608  0.00  0.00    +0.000 A 
ATOM     14  C   UNL     1      17.821  11.076  36.644  0.00  0.00    +0.000 A 
ATOM     15  C   UNL     1      18.791  10.090  36.682  0.00  0.00    +0.000 A 
ATOM     16  C   UNL     1      18.781   9.174  37.695  0.00  0.00    +0.000 A 
ATOM     17  C   UNL     1      17.815   9.241  38.657  0.00  0.00    +0.000 A 
ATOM     18  C   UNL     1      16.849  10.221  38.620  0.00  0.00    +0.000 A 
ATOM     19  O   UNL     1      15.855  10.299  39.600  0.00  0.00    +0.000 OA
ENDBRANCH  12  13
ENDBRANCH   1  12
TORSDOF 4
ENDMDL
MODEL 4
REMARK VINA RESULT:      -6.0      3.511      7.565
REMARK  Name = 
REMARK  4 active torsions:
REMARK  status: ('A' for Active; 'I' for Inactive)
REMARK    1  A    between atoms: C_2  and  C_14
REMARK    2  A    between atoms: N_3  and  C_4
REMARK    3  A    between atoms: C_4  and  N_6
REMARK    4  A    between atoms: N_6  and  C_7
REMARK                            x       y       z     vdW  Elec       q    Type
REMARK                         _______ _______ _______ _____ _____    ______ ____
ROOT
ATOM      1  C   UNL     1      18.418  10.146  38.249  0.00  0.00    +0.000 C 
ATOM      2  S   UNL     1      19.411  11.395  38.580  0.00  0.00    +0.000 S 
ENDROOT
BRANCH   1   5
ATOM      3  O   UNL     1      18.876   9.474  35.597  0.00  0.00    +0.000 OA
ATOM      4  C   UNL     1      17.732   9.940  35.885  0.00  0.00    +0.000 C 
ATOM      5  N   UNL     1      17.449  10.298  37.222  0.00  0.00    +0.000 NA
BRANCH   4   6
ATOM      6  C   UNL     1      16.768  10.074  34.777  0.00  0.00    +0.000 C 
ATOM      7  C   UNL     1      15.716  11.066  35.155  0.00  0.00    +0.000 C 
ATOM      8  C   UNL     1      15.522  12.170  34.169  0.00  0.00    +0.000 C 
ATOM      9  C   UNL     1      15.338  11.665  32.753  0.00  0.00    +0.000 C 
ATOM     10  C   UNL     1      16.317  10.556  32.429  0.00  0.00    +0.000 C 
ATOM     11  C   UNL     1      17.400  10.443  33.479  0.00  0.00    +0.000 C 
ENDBRANCH   4   6
ENDBRANCH   1   5
BRANCH   1  12
ATOM     12  N   UNL     1      18.544   8.943  38.989  0.00  0.00    +0.000 NA
BRANCH  12  13
ATOM     13  C   UNL     1      17.629   8.620  40.007  0.00  0.00    +0.000 A 
ATOM     14  C   UNL     1      16.695   9.510  40.511  0.00  0.00    +0.000 A 
ATOM     15  C   UNL     1      15.811   9.155  41.514  0.00  0.00    +0.000 A 
ATOM     16  C   UNL     1      15.852   7.891  42.031  0.00  0.00    +0.000 A 
ATOM     17  C   UNL     1      16.763   6.994  41.552  0.00  0.00    +0.000 A 
ATOM     18  C   UNL     1      17.643   7.347  40.554  0.00  0.00    +0.000 A 
ATOM     19  O   UNL     1      18.580   6.437  40.056  0.00  0.00    +0.000 OA
ENDBRANCH  12  13
ENDBRANCH   1  12
TORSDOF 4
ENDMDL
MODEL 5
REMARK VINA RESULT:      -6.0      1.564      6.747
REMARK  Name = 
REMARK  4 active torsions:
REMARK  status: ('A' for Active; 'I' for Inactive)
REMARK    1  A    between atoms: C_2  and  C_14
REMARK    2  A    between atoms: N_3  and  C_4
REMARK    3  A    between atoms: C_4  and  N_6
REMARK    4  A    between atoms: N_6  and  C_7
REMARK                            x       y       z     vdW  Elec       q    Type
REMARK                         _______ _______ _______ _____ _____    ______ ____
ROOT
ATOM      1  C   UNL     1      15.605  12.184  36.495  0.00  0.00    +0.000 C 
ATOM      2  S   UNL     1      14.636  11.518  37.623  0.00  0.00    +0.000 S 
ENDROOT
BRANCH   1   5
ATOM      3  O   UNL     1      16.114  10.544  34.317  0.00  0.00    +0.000 OA
ATOM      4  C   UNL     1      15.370  11.553  34.119  0.00  0.00    +0.000 C 
ATOM      5  N   UNL     1      15.081  12.420  35.197  0.00  0.00    +0.000 NA
BRANCH   4   6
ATOM      6  C   UNL     1      14.856  11.745  32.750  0.00  0.00    +0.000 C 
ATOM      7  C   UNL     1      14.054  13.004  32.695  0.00  0.00    +0.000 C 
ATOM      8  C   UNL     1      14.473  13.961  31.629  0.00  0.00    +0.000 C 
ATOM      9  C   UNL     1      14.589  13.306  30.268  0.00  0.00    +0.000 C 
ATOM     10  C   UNL     1      15.277  11.960  30.357  0.00  0.00    +0.000 C 
ATOM     11  C   UNL     1      15.923  11.752  31.709  0.00  0.00    +0.000 C 
ENDBRANCH   4   6
ENDBRANCH   1   5
BRANCH   1  12
ATOM     12  N   UNL     1      16.943  12.512  36.835  0.00  0.00    +0.000 NA
BRANCH  12  13
ATOM     13  C   UNL     1      17.821  11.536  37.341  0.00  0.00    +0.000 A 
ATOM     14  C   UNL     1      17.570  10.174  37.286  0.00  0.00    +0.000 A 
ATOM     15  C   UNL     1      18.459   9.245  37.795  0.00  0.00    +0.000 A 
ATOM     16  C   UNL     1      19.621   9.670  38.372  0.00  0.00    +0.000 A 
ATOM     17  C   UNL     1      19.893  11.007  38.440  0.00  0.00    +0.000 A 
ATOM     18  C   UNL     1      19.009  11.932  37.933  0.00  0.00    +0.000 A 
ATOM     19  O   UNL     1      19.276  13.304  37.996  0.00  0.00    +0.000 OA
ENDBRANCH  12  13
ENDBRANCH   1  12
TORSDOF 4
ENDMDL
MODEL 6
REMARK VINA RESULT:      -6.0     21.317     23.800
REMARK  Name = 
REMARK  4 active torsions:
REMARK  status: ('A' for Active; 'I' for Inactive)
REMARK    1  A    between atoms: C_2  and  C_14
REMARK    2  A    between atoms: N_3  and  C_4
REMARK    3  A    between atoms: C_4  and  N_6
REMARK    4  A    between atoms: N_6  and  C_7
REMARK                            x       y       z     vdW  Elec       q    Type
REMARK                         _______ _______ _______ _____ _____    ______ ____
ROOT
ATOM      1  C   UNL     1      33.703  -5.211  32.774  0.00  0.00    +0.000 C 
ATOM      2  S   UNL     1      33.000  -6.401  33.637  0.00  0.00    +0.000 S 
ENDROOT
BRANCH   1   5
ATOM      3  O   UNL     1      34.580  -3.459  34.738  0.00  0.00    +0.000 OA
ATOM      4  C   UNL     1      33.697  -3.031  33.935  0.00  0.00    +0.000 C 
ATOM      5  N   UNL     1      33.217  -3.885  32.917  0.00  0.00    +0.000 NA
BRANCH   4   6
ATOM      6  C   UNL     1      33.231  -1.646  34.133  0.00  0.00    +0.000 C 
ATOM      7  C   UNL     1      33.236  -1.326  35.592  0.00  0.00    +0.000 C 
ATOM      8  C   UNL     1      33.994  -0.093  35.955  0.00  0.00    +0.000 C 
ATOM      9  C   UNL     1      33.599   1.105  35.117  0.00  0.00    +0.000 C 
ATOM     10  C   UNL     1      33.456   0.736  33.656  0.00  0.00    +0.000 C 
ATOM     11  C   UNL     1      34.021  -0.637  33.369  0.00  0.00    +0.000 C 
ENDBRANCH   4   6
ENDBRANCH   1   5
BRANCH   1  12
ATOM     12  N   UNL     1      34.780  -5.526  31.906  0.00  0.00    +0.000 NA
BRANCH  12  13
ATOM     13  C   UNL     1      34.545  -6.057  30.625  0.00  0.00    +0.000 A 
ATOM     14  C   UNL     1      33.864  -5.380  29.626  0.00  0.00    +0.000 A 
ATOM     15  C   UNL     1      33.653  -5.937  28.377  0.00  0.00    +0.000 A 
ATOM     16  C   UNL     1      34.124  -7.191  28.110  0.00  0.00    +0.000 A 
ATOM     17  C   UNL     1      34.797  -7.880  29.078  0.00  0.00    +0.000 A 
ATOM     18  C   UNL     1      35.008  -7.327  30.320  0.00  0.00    +0.000 A 
ATOM     19  O   UNL     1      35.697  -8.022  31.319  0.00  0.00    +0.000 OA
ENDBRANCH  12  13
ENDBRANCH   1  12
TORSDOF 4
ENDMDL
MODEL 7
REMARK VINA RESULT:      -5.9      1.429      2.193
REMARK  Name = 
REMARK  4 active torsions:
REMARK  status: ('A' for Active; 'I' for Inactive)
REMARK    1  A    between atoms: C_2  and  C_14
REMARK    2  A    between atoms: N_3  and  C_4
REMARK    3  A    between atoms: C_4  and  N_6
REMARK    4  A    between atoms: N_6  and  C_7
REMARK                            x       y       z     vdW  Elec       q    Type
REMARK                         _______ _______ _______ _____ _____    ______ ____
ROOT
ATOM      1  C   UNL     1      15.938  11.575  36.532  0.00  0.00    +0.000 C 
ATOM      2  S   UNL     1      14.692  11.492  37.579  0.00  0.00    +0.000 S 
ENDROOT
BRANCH   1   5
ATOM      3  O   UNL     1      17.271   9.941  38.334  0.00  0.00    +0.000 OA
ATOM      4  C   UNL     1      17.872  10.992  37.952  0.00  0.00    +0.000 C 
ATOM      5  N   UNL     1      17.235  11.857  37.035  0.00  0.00    +0.000 NA
BRANCH   4   6
ATOM      6  C   UNL     1      19.217  11.230  38.509  0.00  0.00    +0.000 C 
ATOM      7  C   UNL     1      20.161  10.199  37.980  0.00  0.00    +0.000 C 
ATOM      8  C   UNL     1      21.389  10.753  37.338  0.00  0.00    +0.000 C 
ATOM      9  C   UNL     1      22.096  11.770  38.209  0.00  0.00    +0.000 C 
ATOM     10  C   UNL     1      21.114  12.723  38.856  0.00  0.00    +0.000 C 
ATOM     11  C   UNL     1      19.735  12.603  38.247  0.00  0.00    +0.000 C 
ENDBRANCH   4   6
ENDBRANCH   1   5
BRANCH   1  12
ATOM     12  N   UNL     1      15.698  11.365  35.150  0.00  0.00    +0.000 NA
BRANCH  12  13
ATOM     13  C   UNL     1      14.984  12.307  34.387  0.00  0.00    +0.000 A 
ATOM     14  C   UNL     1      14.249  13.343  34.939  0.00  0.00    +0.000 A 
ATOM     15  C   UNL     1      13.559  14.250  34.155  0.00  0.00    +0.000 A 
ATOM     16  C   UNL     1      13.596  14.130  32.795  0.00  0.00    +0.000 A 
ATOM     17  C   UNL     1      14.314  13.118  32.226  0.00  0.00    +0.000 A 
ATOM     18  C   UNL     1      15.000  12.215  33.005  0.00  0.00    +0.000 A 
ATOM     19  O   UNL     1      15.739  11.174  32.433  0.00  0.00    +0.000 OA
ENDBRANCH  12  13
ENDBRANCH   1  12
TORSDOF 4
ENDMDL
MODEL 8
REMARK VINA RESULT:      -5.9      2.894      3.608
REMARK  Name = 
REMARK  4 active torsions:
REMARK  status: ('A' for Active; 'I' for Inactive)
REMARK    1  A    between atoms: C_2  and  C_14
REMARK    2  A    between atoms: N_3  and  C_4
REMARK    3  A    between atoms: C_4  and  N_6
REMARK    4  A    between atoms: N_6  and  C_7
REMARK                            x       y       z     vdW  Elec       q    Type
REMARK                         _______ _______ _______ _____ _____    ______ ____
ROOT
ATOM      1  C   UNL     1      16.443  11.459  37.055  0.00  0.00    +0.000 C 
ATOM      2  S   UNL     1      17.544  12.604  36.691  0.00  0.00    +0.000 S 
ENDROOT
BRANCH   1   5
ATOM      3  O   UNL     1      18.166   9.491  37.977  0.00  0.00    +0.000 OA
ATOM      4  C   UNL     1      17.307   9.938  38.798  0.00  0.00    +0.000 C 
ATOM      5  N   UNL     1      16.406  10.942  38.376  0.00  0.00    +0.000 NA
BRANCH   4   6
ATOM      6  C   UNL     1      17.319   9.362  40.155  0.00  0.00    +0.000 C 
ATOM      7  C   UNL     1      15.960   9.497  40.761  0.00  0.00    +0.000 C 
ATOM      8  C   UNL     1      15.381   8.221  41.276  0.00  0.00    +0.000 C 
ATOM      9  C   UNL     1      16.332   7.473  42.186  0.00  0.00    +0.000 C 
ATOM     10  C   UNL     1      17.740   7.467  41.631  0.00  0.00    +0.000 C 
ATOM     11  C   UNL     1      17.777   7.944  40.197  0.00  0.00    +0.000 C 
ENDBRANCH   4   6
ENDBRANCH   1   5
BRANCH   1  12
ATOM     12  N   UNL     1      15.550  11.009  36.048  0.00  0.00    +0.000 NA
BRANCH  12  13
ATOM     13  C   UNL     1      15.016  11.903  35.102  0.00  0.00    +0.000 A 
ATOM     14  C   UNL     1      14.237  12.999  35.434  0.00  0.00    +0.000 A 
ATOM     15  C   UNL     1      13.730  13.855  34.474  0.00  0.00    +0.000 A 
ATOM     16  C   UNL     1      13.997  13.622  33.155  0.00  0.00    +0.000 A 
ATOM     17  C   UNL     1      14.762  12.549  32.800  0.00  0.00    +0.000 A 
ATOM     18  C   UNL     1      15.268  11.696  33.755  0.00  0.00    +0.000 A 
ATOM     19  O   UNL     1      16.053  10.594  33.403  0.00  0.00    +0.000 OA
ENDBRANCH  12  13
ENDBRANCH   1  12
TORSDOF 4
ENDMDL
MODEL 9
REMARK VINA RESULT:      -5.8      3.495      7.495
REMARK  Name = 
REMARK  4 active torsions:
REMARK  status: ('A' for Active; 'I' for Inactive)
REMARK    1  A    between atoms: C_2  and  C_14
REMARK    2  A    between atoms: N_3  and  C_4
REMARK    3  A    between atoms: C_4  and  N_6
REMARK    4  A    between atoms: N_6  and  C_7
REMARK                            x       y       z     vdW  Elec       q    Type
REMARK                         _______ _______ _______ _____ _____    ______ ____
ROOT
ATOM      1  C   UNL     1      20.135  10.676  38.292  0.00  0.00    +0.000 C 
ATOM      2  S   UNL     1      20.396   9.389  39.257  0.00  0.00    +0.000 S 
ENDROOT
BRANCH   1   5
ATOM      3  O   UNL     1      19.146   9.582  35.943  0.00  0.00    +0.000 OA
ATOM      4  C   UNL     1      18.365  10.332  36.605  0.00  0.00    +0.000 C 
ATOM      5  N   UNL     1      18.822  10.913  37.809  0.00  0.00    +0.000 NA
BRANCH   4   6
ATOM      6  C   UNL     1      17.013  10.540  36.053  0.00  0.00    +0.000 C 
ATOM      7  C   UNL     1      16.221  11.388  36.994  0.00  0.00    +0.000 C 
ATOM      8  C   UNL     1      15.605  12.597  36.370  0.00  0.00    +0.000 C 
ATOM      9  C   UNL     1      14.829  12.275  35.111  0.00  0.00    +0.000 C 
ATOM     10  C   UNL     1      15.580  11.298  34.231  0.00  0.00    +0.000 C 
ATOM     11  C   UNL     1      17.013  11.128  34.683  0.00  0.00    +0.000 C 
ENDBRANCH   4   6
ENDBRANCH   1   5
BRANCH   1  12
ATOM     12  N   UNL     1      21.222  11.526  37.959  0.00  0.00    +0.000 NA
BRANCH  12  13
ATOM     13  C   UNL     1      22.425  10.998  37.456  0.00  0.00    +0.000 A 
ATOM     14  C   UNL     1      22.508  10.243  36.298  0.00  0.00    +0.000 A 
ATOM     15  C   UNL     1      23.711   9.742  35.835  0.00  0.00    +0.000 A 
ATOM     16  C   UNL     1      24.858   9.991  36.534  0.00  0.00    +0.000 A 
ATOM     17  C   UNL     1      24.804  10.732  37.680  0.00  0.00    +0.000 A 
ATOM     18  C   UNL     1      23.607  11.231  38.140  0.00  0.00    +0.000 A 
ATOM     19  O   UNL     1      23.540  11.992  39.312  0.00  0.00    +0.000 OA
ENDBRANCH  12  13
ENDBRANCH   1  12
TORSDOF 4
ENDMDL
MODEL 10
REMARK VINA RESULT:      -5.6      3.711      4.986
REMARK  Name = 
REMARK  4 active torsions:
REMARK  status: ('A' for Active; 'I' for Inactive)
REMARK    1  A    between atoms: C_2  and  C_14
REMARK    2  A    between atoms: N_3  and  C_4
REMARK    3  A    between atoms: C_4  and  N_6
REMARK    4  A    between atoms: N_6  and  C_7
REMARK                            x       y       z     vdW  Elec       q    Type
REMARK                         _______ _______ _______ _____ _____    ______ ____
ROOT
ATOM      1  C   UNL     1      17.945  10.312  37.833  0.00  0.00    +0.000 C 
ATOM      2  S   UNL     1      18.725  11.743  37.829  0.00  0.00    +0.000 S 
ENDROOT
BRANCH   1   5
ATOM      3  O   UNL     1      16.294   9.928  40.028  0.00  0.00    +0.000 OA
ATOM      4  C   UNL     1      17.349   9.226  39.969  0.00  0.00    +0.000 C 
ATOM      5  N   UNL     1      18.223   9.385  38.871  0.00  0.00    +0.000 NA
BRANCH   4   6
ATOM      6  C   UNL     1      17.584   8.281  41.076  0.00  0.00    +0.000 C 
ATOM      7  C   UNL     1      16.816   8.726  42.278  0.00  0.00    +0.000 C 
ATOM      8  C   UNL     1      15.924   7.684  42.866  0.00  0.00    +0.000 C 
ATOM      9  C   UNL     1      16.639   6.371  43.109  0.00  0.00    +0.000 C 
ATOM     10  C   UNL     1      17.529   6.001  41.941  0.00  0.00    +0.000 C 
ATOM     11  C   UNL     1      17.254   6.868  40.733  0.00  0.00    +0.000 C 
ENDBRANCH   4   6
ENDBRANCH   1   5
BRANCH   1  12
ATOM     12  N   UNL     1      17.009  10.028  36.804  0.00  0.00    +0.000 NA
BRANCH  12  13
ATOM     13  C   UNL     1      16.002  10.951  36.467  0.00  0.00    +0.000 A 
ATOM     14  C   UNL     1      14.992  11.336  37.334  0.00  0.00    +0.000 A 
ATOM     15  C   UNL     1      14.018  12.247  36.964  0.00  0.00    +0.000 A 
ATOM     16  C   UNL     1      14.043  12.788  35.710  0.00  0.00    +0.000 A 
ATOM     17  C   UNL     1      15.027  12.424  34.837  0.00  0.00    +0.000 A 
ATOM     18  C   UNL     1      15.996  11.518  35.203  0.00  0.00    +0.000 A 
ATOM     19  O   UNL     1      17.009  11.139  34.317  0.00  0.00    +0.000 OA
ENDBRANCH  12  13
ENDBRANCH   1  12
TORSDOF 4
ENDMDL
