MODEL 1
REMARK VINA RESULT:      -5.5      0.000      0.000
REMARK  Name = 
REMARK  4 active torsions:
REMARK  status: ('A' for Active; 'I' for Inactive)
REMARK    1  A    between atoms: C_3  and  C_4
REMARK    2  A    between atoms: C_4  and  O_6
REMARK    3  A    between atoms: O_6  and  C_7
REMARK    4  A    between atoms: C_10  and  C_11
REMARK                            x       y       z     vdW  Elec       q    Type
REMARK                         _______ _______ _______ _____ _____    ______ ____
ROOT
ATOM      1  C   UNL     1      22.308  -7.645  24.921  0.00  0.00    +0.000 C 
ATOM      2  C   UNL     1      22.112  -8.993  25.622  0.00  0.00    +0.000 C 
ATOM      3  C   UNL     1      20.884  -9.221  25.979  0.00  0.00    +0.000 C 
ATOM      4  C   UNL     1      20.530 -10.633  26.507  0.00  0.00    +0.000 C 
ATOM      5  N   UNL     1      21.711 -11.116  27.202  0.00  0.00    +0.000 NA
ATOM      6  C   UNL     1      22.989 -10.883  26.788  0.00  0.00    +0.000 C 
ATOM      7  S   UNL     1      24.236 -11.891  27.244  0.00  0.00    +0.000 S 
ATOM      8  N   UNL     1      23.272  -9.756  25.946  0.00  0.00    +0.000 NA
ENDROOT
BRANCH   4   9
ATOM      9  C   UNL     1      19.486 -10.318  27.638  0.00  0.00    +0.000 A 
ATOM     10  C   UNL     1      20.016  -9.787  28.778  0.00  0.00    +0.000 A 
ATOM     11  C   UNL     1      19.150  -9.468  29.857  0.00  0.00    +0.000 A 
ATOM     12  C   UNL     1      17.803  -9.700  29.739  0.00  0.00    +0.000 A 
ATOM     13  C   UNL     1      17.294 -10.232  28.592  0.00  0.00    +0.000 A 
ATOM     14  C   UNL     1      18.172 -10.534  27.547  0.00  0.00    +0.000 A 
ATOM     15  O   UNL     1      17.699 -11.077  26.361  0.00  0.00    +0.000 OA
ENDBRANCH   4   9
BRANCH   3  16
ATOM     16  C   UNL     1      19.824  -8.245  25.735  0.00  0.00    +0.000 C 
ATOM     17  O   UNL     1      19.081  -8.462  24.753  0.00  0.00    +0.000 OA
BRANCH  16  18
ATOM     18  O   UNL     1      19.552  -7.129  26.447  0.00  0.00    +0.000 OA
BRANCH  18  19
ATOM     19  C   UNL     1      18.474  -6.246  26.272  0.00  0.00    +0.000 C 
ATOM     20  C   UNL     1      17.362  -6.728  27.212  0.00  0.00    +0.000 C 
ATOM     21  C   UNL     1      18.806  -4.820  26.610  0.00  0.00    +0.000 C 
ENDBRANCH  18  19
ENDBRANCH  16  18
ENDBRANCH   3  16
TORSDOF 4
ENDMDL
MODEL 2
REMARK VINA RESULT:      -5.4     33.512     34.909
REMARK  Name = 
REMARK  4 active torsions:
REMARK  status: ('A' for Active; 'I' for Inactive)
REMARK    1  A    between atoms: C_3  and  C_4
REMARK    2  A    between atoms: C_4  and  O_6
REMARK    3  A    between atoms: O_6  and  C_7
REMARK    4  A    between atoms: C_10  and  C_11
REMARK                            x       y       z     vdW  Elec       q    Type
REMARK                         _______ _______ _______ _____ _____    ______ ____
ROOT
ATOM      1  C   UNL     1      26.213  23.975  28.311  0.00  0.00    +0.000 C 
ATOM      2  C   UNL     1      25.670  24.691  27.071  0.00  0.00    +0.000 C 
ATOM      3  C   UNL     1      26.185  24.269  25.957  0.00  0.00    +0.000 C 
ATOM      4  C   UNL     1      25.564  24.773  24.630  0.00  0.00    +0.000 C 
ATOM      5  N   UNL     1      25.107  26.129  24.884  0.00  0.00    +0.000 NA
ATOM      6  C   UNL     1      24.545  26.538  26.057  0.00  0.00    +0.000 C 
ATOM      7  S   UNL     1      23.544  27.869  26.110  0.00  0.00    +0.000 S 
ATOM      8  N   UNL     1      24.814  25.815  27.267  0.00  0.00    +0.000 NA
ENDROOT
BRANCH   4   9
ATOM      9  C   UNL     1      26.825  24.930  23.706  0.00  0.00    +0.000 A 
ATOM     10  C   UNL     1      27.657  25.959  24.038  0.00  0.00    +0.000 A 
ATOM     11  C   UNL     1      28.824  26.179  23.259  0.00  0.00    +0.000 A 
ATOM     12  C   UNL     1      29.094  25.362  22.192  0.00  0.00    +0.000 A 
ATOM     13  C   UNL     1      28.249  24.339  21.877  0.00  0.00    +0.000 A 
ATOM     14  C   UNL     1      27.109  24.146  22.663  0.00  0.00    +0.000 A 
ATOM     15  O   UNL     1      26.220  23.119  22.380  0.00  0.00    +0.000 OA
ENDBRANCH   4   9
BRANCH   3  16
ATOM     16  C   UNL     1      27.201  23.219  25.935  0.00  0.00    +0.000 C 
ATOM     17  O   UNL     1      26.810  22.069  25.640  0.00  0.00    +0.000 OA
BRANCH  16  18
ATOM     18  O   UNL     1      28.521  23.346  26.198  0.00  0.00    +0.000 OA
BRANCH  18  19
ATOM     19  C   UNL     1      29.528  22.388  25.994  0.00  0.00    +0.000 C 
ATOM     20  C   UNL     1      30.212  22.755  24.671  0.00  0.00    +0.000 C 
ATOM     21  C   UNL     1      30.565  22.366  27.082  0.00  0.00    +0.000 C 
ENDBRANCH  18  19
ENDBRANCH  16  18
ENDBRANCH   3  16
TORSDOF 4
ENDMDL
MODEL 3
REMARK VINA RESULT:      -5.3      2.769      3.840
REMARK  Name = 
REMARK  4 active torsions:
REMARK  status: ('A' for Active; 'I' for Inactive)
REMARK    1  A    between atoms: C_3  and  C_4
REMARK    2  A    between atoms: C_4  and  O_6
REMARK    3  A    between atoms: O_6  and  C_7
REMARK    4  A    between atoms: C_10  and  C_11
REMARK                            x       y       z     vdW  Elec       q    Type
REMARK                         _______ _______ _______ _____ _____    ______ ____
ROOT
ATOM      1  C   UNL     1      20.815  -9.807  22.012  0.00  0.00    +0.000 C 
ATOM      2  C   UNL     1      21.404  -9.067  23.216  0.00  0.00    +0.000 C 
ATOM      3  C   UNL     1      20.653  -9.114  24.275  0.00  0.00    +0.000 C 
ATOM      4  C   UNL     1      21.238  -8.581  25.607  0.00  0.00    +0.000 C 
ATOM      5  N   UNL     1      22.123  -7.484  25.252  0.00  0.00    +0.000 NA
ATOM      6  C   UNL     1      22.920  -7.474  24.146  0.00  0.00    +0.000 C 
ATOM      7  S   UNL     1      24.286  -6.521  24.082  0.00  0.00    +0.000 S 
ATOM      8  N   UNL     1      22.585  -8.293  23.017  0.00  0.00    +0.000 NA
ENDROOT
BRANCH   4   9
ATOM      9  C   UNL     1      19.989  -7.902  26.275  0.00  0.00    +0.000 A 
ATOM     10  C   UNL     1      19.680  -6.664  25.793  0.00  0.00    +0.000 A 
ATOM     11  C   UNL     1      18.566  -5.971  26.337  0.00  0.00    +0.000 A 
ATOM     12  C   UNL     1      17.823  -6.553  27.332  0.00  0.00    +0.000 A 
ATOM     13  C   UNL     1      18.149  -7.791  27.800  0.00  0.00    +0.000 A 
ATOM     14  C   UNL     1      19.251  -8.449  27.244  0.00  0.00    +0.000 A 
ATOM     15  O   UNL     1      19.620  -9.710  27.689  0.00  0.00    +0.000 OA
ENDBRANCH   4   9
BRANCH   3  16
ATOM     16  C   UNL     1      19.365  -9.803  24.268  0.00  0.00    +0.000 C 
ATOM     17  O   UNL     1      19.372 -11.006  24.608  0.00  0.00    +0.000 OA
BRANCH  16  18
ATOM     18  O   UNL     1      18.159  -9.292  23.932  0.00  0.00    +0.000 OA
BRANCH  18  19
ATOM     19  C   UNL     1      16.898  -9.877  24.130  0.00  0.00    +0.000 C 
ATOM     20  C   UNL     1      16.068  -8.860  24.922  0.00  0.00    +0.000 C 
ATOM     21  C   UNL     1      16.177 -10.195  22.850  0.00  0.00    +0.000 C 
ENDBRANCH  18  19
ENDBRANCH  16  18
ENDBRANCH   3  16
TORSDOF 4
ENDMDL
MODEL 4
REMARK VINA RESULT:      -5.3     21.824     23.869
REMARK  Name = 
REMARK  4 active torsions:
REMARK  status: ('A' for Active; 'I' for Inactive)
REMARK    1  A    between atoms: C_3  and  C_4
REMARK    2  A    between atoms: C_4  and  O_6
REMARK    3  A    between atoms: O_6  and  C_7
REMARK    4  A    between atoms: C_10  and  C_11
REMARK                            x       y       z     vdW  Elec       q    Type
REMARK                         _______ _______ _______ _____ _____    ______ ____
ROOT
ATOM      1  C   UNL     1      19.791  13.948  38.587  0.00  0.00    +0.000 C 
ATOM      2  C   UNL     1      19.663  12.457  38.263  0.00  0.00    +0.000 C 
ATOM      3  C   UNL     1      20.746  11.778  38.495  0.00  0.00    +0.000 C 
ATOM      4  C   UNL     1      20.671  10.234  38.402  0.00  0.00    +0.000 C 
ATOM      5  N   UNL     1      19.698   9.935  37.365  0.00  0.00    +0.000 NA
ATOM      6  C   UNL     1      18.555  10.650  37.162  0.00  0.00    +0.000 C 
ATOM      7  S   UNL     1      17.241   9.969  36.396  0.00  0.00    +0.000 S 
ATOM      8  N   UNL     1      18.475  12.011  37.612  0.00  0.00    +0.000 NA
ENDROOT
BRANCH   4   9
ATOM      9  C   UNL     1      22.065   9.866  37.777  0.00  0.00    +0.000 A 
ATOM     10  C   UNL     1      22.223  10.226  36.470  0.00  0.00    +0.000 A 
ATOM     11  C   UNL     1      23.450   9.935  35.819  0.00  0.00    +0.000 A 
ATOM     12  C   UNL     1      24.451   9.299  36.507  0.00  0.00    +0.000 A 
ATOM     13  C   UNL     1      24.273   8.947  37.812  0.00  0.00    +0.000 A 
ATOM     14  C   UNL     1      23.054   9.248  38.427  0.00  0.00    +0.000 A 
ATOM     15  O   UNL     1      22.827   8.909  39.753  0.00  0.00    +0.000 OA
ENDBRANCH   4   9
BRANCH   3  16
ATOM     16  C   UNL     1      21.957  12.421  38.998  0.00  0.00    +0.000 C 
ATOM     17  O   UNL     1      22.139  12.380  40.234  0.00  0.00    +0.000 OA
BRANCH  16  18
ATOM     18  O   UNL     1      22.909  13.061  38.282  0.00  0.00    +0.000 OA
BRANCH  18  19
ATOM     19  C   UNL     1      23.831  14.013  38.745  0.00  0.00    +0.000 C 
ATOM     20  C   UNL     1      25.089  13.854  37.882  0.00  0.00    +0.000 C 
ATOM     21  C   UNL     1      23.342  15.429  38.626  0.00  0.00    +0.000 C 
ENDBRANCH  18  19
ENDBRANCH  16  18
ENDBRANCH   3  16
TORSDOF 4
ENDMDL
MODEL 5
REMARK VINA RESULT:      -5.2     33.284     34.553
REMARK  Name = 
REMARK  4 active torsions:
REMARK  status: ('A' for Active; 'I' for Inactive)
REMARK    1  A    between atoms: C_3  and  C_4
REMARK    2  A    between atoms: C_4  and  O_6
REMARK    3  A    between atoms: O_6  and  C_7
REMARK    4  A    between atoms: C_10  and  C_11
REMARK                            x       y       z     vdW  Elec       q    Type
REMARK                         _______ _______ _______ _____ _____    ______ ____
ROOT
ATOM      1  C   UNL     1      31.531  23.101  24.498  0.00  0.00    +0.000 C 
ATOM      2  C   UNL     1      30.494  23.024  25.622  0.00  0.00    +0.000 C 
ATOM      3  C   UNL     1      29.281  23.274  25.231  0.00  0.00    +0.000 C 
ATOM      4  C   UNL     1      28.126  23.023  26.232  0.00  0.00    +0.000 C 
ATOM      5  N   UNL     1      28.660  23.315  27.551  0.00  0.00    +0.000 NA
ATOM      6  C   UNL     1      29.932  23.016  27.943  0.00  0.00    +0.000 C 
ATOM      7  S   UNL     1      30.312  22.832  29.555  0.00  0.00    +0.000 S 
ATOM      8  N   UNL     1      30.963  22.855  26.958  0.00  0.00    +0.000 NA
ENDROOT
BRANCH   4   9
ATOM      9  C   UNL     1      27.143  24.206  25.915  0.00  0.00    +0.000 A 
ATOM     10  C   UNL     1      27.556  25.431  26.352  0.00  0.00    +0.000 A 
ATOM     11  C   UNL     1      26.732  26.562  26.111  0.00  0.00    +0.000 A 
ATOM     12  C   UNL     1      25.541  26.408  25.450  0.00  0.00    +0.000 A 
ATOM     13  C   UNL     1      25.146  25.175  25.022  0.00  0.00    +0.000 A 
ATOM     14  C   UNL     1      25.979  24.081  25.273  0.00  0.00    +0.000 A 
ATOM     15  O   UNL     1      25.618  22.807  24.856  0.00  0.00    +0.000 OA
ENDBRANCH   4   9
BRANCH   3  16
ATOM     16  C   UNL     1      28.982  23.615  23.842  0.00  0.00    +0.000 C 
ATOM     17  O   UNL     1      28.520  22.698  23.129  0.00  0.00    +0.000 OA
BRANCH  16  18
ATOM     18  O   UNL     1      29.150  24.810  23.232  0.00  0.00    +0.000 OA
BRANCH  18  19
ATOM     19  C   UNL     1      28.443  25.311  22.127  0.00  0.00    +0.000 C 
ATOM     20  C   UNL     1      27.905  26.686  22.544  0.00  0.00    +0.000 C 
ATOM     21  C   UNL     1      29.292  25.480  20.898  0.00  0.00    +0.000 C 
ENDBRANCH  18  19
ENDBRANCH  16  18
ENDBRANCH   3  16
TORSDOF 4
ENDMDL
MODEL 6
REMARK VINA RESULT:      -5.2     33.374     34.593
REMARK  Name = 
REMARK  4 active torsions:
REMARK  status: ('A' for Active; 'I' for Inactive)
REMARK    1  A    between atoms: C_3  and  C_4
REMARK    2  A    between atoms: C_4  and  O_6
REMARK    3  A    between atoms: O_6  and  C_7
REMARK    4  A    between atoms: C_10  and  C_11
REMARK                            x       y       z     vdW  Elec       q    Type
REMARK                         _______ _______ _______ _____ _____    ______ ____
ROOT
ATOM      1  C   UNL     1      24.978  24.961  26.510  0.00  0.00    +0.000 C 
ATOM      2  C   UNL     1      26.182  24.445  27.305  0.00  0.00    +0.000 C 
ATOM      3  C   UNL     1      27.327  24.759  26.779  0.00  0.00    +0.000 C 
ATOM      4  C   UNL     1      28.609  24.473  27.600  0.00  0.00    +0.000 C 
ATOM      5  N   UNL     1      28.339  23.269  28.368  0.00  0.00    +0.000 NA
ATOM      6  C   UNL     1      27.132  22.978  28.932  0.00  0.00    +0.000 C 
ATOM      7  S   UNL     1      27.020  21.942  30.233  0.00  0.00    +0.000 S 
ATOM      8  N   UNL     1      25.936  23.569  28.403  0.00  0.00    +0.000 NA
ENDROOT
BRANCH   4   9
ATOM      9  C   UNL     1      29.628  24.031  26.489  0.00  0.00    +0.000 A 
ATOM     10  C   UNL     1      29.453  22.762  26.018  0.00  0.00    +0.000 A 
ATOM     11  C   UNL     1      30.328  22.275  25.011  0.00  0.00    +0.000 A 
ATOM     12  C   UNL     1      31.329  23.080  24.532  0.00  0.00    +0.000 A 
ATOM     13  C   UNL     1      31.487  24.344  25.017  0.00  0.00    +0.000 A 
ATOM     14  C   UNL     1      30.610  24.797  26.007  0.00  0.00    +0.000 A 
ATOM     15  O   UNL     1      30.733  26.076  26.529  0.00  0.00    +0.000 OA
ENDBRANCH   4   9
BRANCH   3  16
ATOM     16  C   UNL     1      27.412  25.517  25.533  0.00  0.00    +0.000 C 
ATOM     17  O   UNL     1      27.782  26.708  25.627  0.00  0.00    +0.000 OA
BRANCH  16  18
ATOM     18  O   UNL     1      27.136  25.082  24.283  0.00  0.00    +0.000 OA
BRANCH  18  19
ATOM     19  C   UNL     1      27.249  23.771  23.791  0.00  0.00    +0.000 C 
ATOM     20  C   UNL     1      25.823  23.301  23.478  0.00  0.00    +0.000 C 
ATOM     21  C   UNL     1      28.075  23.671  22.539  0.00  0.00    +0.000 C 
ENDBRANCH  18  19
ENDBRANCH  16  18
ENDBRANCH   3  16
TORSDOF 4
ENDMDL
MODEL 7
REMARK VINA RESULT:      -5.0     33.424     35.268
REMARK  Name = 
REMARK  4 active torsions:
REMARK  status: ('A' for Active; 'I' for Inactive)
REMARK    1  A    between atoms: C_3  and  C_4
REMARK    2  A    between atoms: C_4  and  O_6
REMARK    3  A    between atoms: O_6  and  C_7
REMARK    4  A    between atoms: C_10  and  C_11
REMARK                            x       y       z     vdW  Elec       q    Type
REMARK                         _______ _______ _______ _____ _____    ______ ____
ROOT
ATOM      1  C   UNL     1      24.577  25.274  26.868  0.00  0.00    +0.000 C 
ATOM      2  C   UNL     1      25.250  25.812  25.602  0.00  0.00    +0.000 C 
ATOM      3  C   UNL     1      26.181  25.036  25.137  0.00  0.00    +0.000 C 
ATOM      4  C   UNL     1      26.786  25.373  23.752  0.00  0.00    +0.000 C 
ATOM      5  N   UNL     1      26.767  26.822  23.642  0.00  0.00    +0.000 NA
ATOM      6  C   UNL     1      25.761  27.611  24.117  0.00  0.00    +0.000 C 
ATOM      7  S   UNL     1      25.492  29.131  23.488  0.00  0.00    +0.000 S 
ATOM      8  N   UNL     1      24.917  27.131  25.174  0.00  0.00    +0.000 NA
ENDROOT
BRANCH   4   9
ATOM      9  C   UNL     1      28.299  24.996  23.943  0.00  0.00    +0.000 A 
ATOM     10  C   UNL     1      29.025  25.884  24.682  0.00  0.00    +0.000 A 
ATOM     11  C   UNL     1      30.403  25.627  24.909  0.00  0.00    +0.000 A 
ATOM     12  C   UNL     1      30.980  24.498  24.385  0.00  0.00    +0.000 A 
ATOM     13  C   UNL     1      30.236  23.624  23.649  0.00  0.00    +0.000 A 
ATOM     14  C   UNL     1      28.882  23.904  23.444  0.00  0.00    +0.000 A 
ATOM     15  O   UNL     1      28.087  23.042  22.701  0.00  0.00    +0.000 OA
ENDBRANCH   4   9
BRANCH   3  16
ATOM     16  C   UNL     1      26.536  23.785  25.803  0.00  0.00    +0.000 C 
ATOM     17  O   UNL     1      26.032  22.741  25.336  0.00  0.00    +0.000 OA
BRANCH  16  18
ATOM     18  O   UNL     1      27.348  23.622  26.872  0.00  0.00    +0.000 OA
BRANCH  18  19
ATOM     19  C   UNL     1      27.835  22.414  27.398  0.00  0.00    +0.000 C 
ATOM     20  C   UNL     1      29.315  22.336  27.004  0.00  0.00    +0.000 C 
ATOM     21  C   UNL     1      27.729  22.327  28.895  0.00  0.00    +0.000 C 
ENDBRANCH  18  19
ENDBRANCH  16  18
ENDBRANCH   3  16
TORSDOF 4
ENDMDL
MODEL 8
REMARK VINA RESULT:      -4.8     33.890     35.764
REMARK  Name = 
REMARK  4 active torsions:
REMARK  status: ('A' for Active; 'I' for Inactive)
REMARK    1  A    between atoms: C_3  and  C_4
REMARK    2  A    between atoms: C_4  and  O_6
REMARK    3  A    between atoms: O_6  and  C_7
REMARK    4  A    between atoms: C_10  and  C_11
REMARK                            x       y       z     vdW  Elec       q    Type
REMARK                         _______ _______ _______ _____ _____    ______ ____
ROOT
ATOM      1  C   UNL     1      25.362  27.440  24.812  0.00  0.00    +0.000 C 
ATOM      2  C   UNL     1      26.552  27.260  23.864  0.00  0.00    +0.000 C 
ATOM      3  C   UNL     1      27.041  26.057  23.864  0.00  0.00    +0.000 C 
ATOM      4  C   UNL     1      28.107  25.705  22.797  0.00  0.00    +0.000 C 
ATOM      5  N   UNL     1      28.867  26.921  22.565  0.00  0.00    +0.000 NA
ATOM      6  C   UNL     1      28.322  28.171  22.545  0.00  0.00    +0.000 C 
ATOM      7  S   UNL     1      29.069  29.421  21.733  0.00  0.00    +0.000 S 
ATOM      8  N   UNL     1      27.086  28.421  23.230  0.00  0.00    +0.000 NA
ENDROOT
BRANCH   4   9
ATOM      9  C   UNL     1      29.077  24.758  23.590  0.00  0.00    +0.000 A 
ATOM     10  C   UNL     1      29.933  25.394  24.442  0.00  0.00    +0.000 A 
ATOM     11  C   UNL     1      30.849  24.620  25.203  0.00  0.00    +0.000 A 
ATOM     12  C   UNL     1      30.860  23.255  25.070  0.00  0.00    +0.000 A 
ATOM     13  C   UNL     1      29.997  22.640  24.212  0.00  0.00    +0.000 A 
ATOM     14  C   UNL     1      29.107  23.428  23.478  0.00  0.00    +0.000 A 
ATOM     15  O   UNL     1      28.211  22.846  22.593  0.00  0.00    +0.000 OA
ENDBRANCH   4   9
BRANCH   3  16
ATOM     16  C   UNL     1      26.490  25.009  24.719  0.00  0.00    +0.000 C 
ATOM     17  O   UNL     1      25.648  24.247  24.197  0.00  0.00    +0.000 OA
BRANCH  16  18
ATOM     18  O   UNL     1      26.783  24.765  26.016  0.00  0.00    +0.000 OA
BRANCH  18  19
ATOM     19  C   UNL     1      26.353  23.682  26.800  0.00  0.00    +0.000 C 
ATOM     20  C   UNL     1      27.582  22.789  27.013  0.00  0.00    +0.000 C 
ATOM     21  C   UNL     1      25.815  24.089  28.143  0.00  0.00    +0.000 C 
ENDBRANCH  18  19
ENDBRANCH  16  18
ENDBRANCH   3  16
TORSDOF 4
ENDMDL
MODEL 9
REMARK VINA RESULT:      -4.8      2.777      4.582
REMARK  Name = 
REMARK  4 active torsions:
REMARK  status: ('A' for Active; 'I' for Inactive)
REMARK    1  A    between atoms: C_3  and  C_4
REMARK    2  A    between atoms: C_4  and  O_6
REMARK    3  A    between atoms: O_6  and  C_7
REMARK    4  A    between atoms: C_10  and  C_11
REMARK                            x       y       z     vdW  Elec       q    Type
REMARK                         _______ _______ _______ _____ _____    ______ ____
ROOT
ATOM      1  C   UNL     1      17.517 -12.007  25.216  0.00  0.00    +0.000 C 
ATOM      2  C   UNL     1      18.037 -11.209  26.415  0.00  0.00    +0.000 C 
ATOM      3  C   UNL     1      17.853  -9.928  26.308  0.00  0.00    +0.000 C 
ATOM      4  C   UNL     1      18.148  -9.044  27.545  0.00  0.00    +0.000 C 
ATOM      5  N   UNL     1      19.253  -9.679  28.244  0.00  0.00    +0.000 NA
ATOM      6  C   UNL     1      19.407 -11.028  28.362  0.00  0.00    +0.000 C 
ATOM      7  S   UNL     1      20.307 -11.684  29.603  0.00  0.00    +0.000 S 
ATOM      8  N   UNL     1      18.788 -11.904  27.409  0.00  0.00    +0.000 NA
ENDROOT
BRANCH   4   9
ATOM      9  C   UNL     1      18.760  -7.751  26.897  0.00  0.00    +0.000 A 
ATOM     10  C   UNL     1      20.010  -7.906  26.371  0.00  0.00    +0.000 A 
ATOM     11  C   UNL     1      20.645  -6.791  25.762  0.00  0.00    +0.000 A 
ATOM     12  C   UNL     1      19.998  -5.583  25.714  0.00  0.00    +0.000 A 
ATOM     13  C   UNL     1      18.750  -5.449  26.247  0.00  0.00    +0.000 A 
ATOM     14  C   UNL     1      18.150  -6.565  26.838  0.00  0.00    +0.000 A 
ATOM     15  O   UNL     1      16.881  -6.475  27.392  0.00  0.00    +0.000 OA
ENDBRANCH   4   9
BRANCH   3  16
ATOM     16  C   UNL     1      17.222  -9.343  25.127  0.00  0.00    +0.000 C 
ATOM     17  O   UNL     1      17.929  -9.260  24.100  0.00  0.00    +0.000 OA
BRANCH  16  18
ATOM     18  O   UNL     1      15.958  -8.877  25.015  0.00  0.00    +0.000 OA
BRANCH  18  19
ATOM     19  C   UNL     1      14.771  -9.627  24.976  0.00  0.00    +0.000 C 
ATOM     20  C   UNL     1      13.624  -8.634  25.194  0.00  0.00    +0.000 C 
ATOM     21  C   UNL     1      14.552 -10.336  23.669  0.00  0.00    +0.000 C 
ENDBRANCH  18  19
ENDBRANCH  16  18
ENDBRANCH   3  16
TORSDOF 4
ENDMDL
MODEL 10
REMARK VINA RESULT:      -4.8     34.030     36.189
REMARK  Name = 
REMARK  4 active torsions:
REMARK  status: ('A' for Active; 'I' for Inactive)
REMARK    1  A    between atoms: C_3  and  C_4
REMARK    2  A    between atoms: C_4  and  O_6
REMARK    3  A    between atoms: O_6  and  C_7
REMARK    4  A    between atoms: C_10  and  C_11
REMARK                            x       y       z     vdW  Elec       q    Type
REMARK                         _______ _______ _______ _____ _____    ______ ____
ROOT
ATOM      1  C   UNL     1      27.358  28.940  22.717  0.00  0.00    +0.000 C 
ATOM      2  C   UNL     1      27.995  27.813  21.899  0.00  0.00    +0.000 C 
ATOM      3  C   UNL     1      27.933  26.651  22.475  0.00  0.00    +0.000 C 
ATOM      4  C   UNL     1      28.357  25.408  21.654  0.00  0.00    +0.000 C 
ATOM      5  N   UNL     1      29.418  25.849  20.764  0.00  0.00    +0.000 NA
ATOM      6  C   UNL     1      29.442  27.067  20.152  0.00  0.00    +0.000 C 
ATOM      7  S   UNL     1      30.315  27.306  18.752  0.00  0.00    +0.000 S 
ATOM      8  N   UNL     1      28.707  28.164  20.714  0.00  0.00    +0.000 NA
ENDROOT
BRANCH   4   9
ATOM      9  C   UNL     1      29.070  24.517  22.734  0.00  0.00    +0.000 A 
ATOM     10  C   UNL     1      30.306  24.952  23.114  0.00  0.00    +0.000 A 
ATOM     11  C   UNL     1      31.028  24.212  24.087  0.00  0.00    +0.000 A 
ATOM     12  C   UNL     1      30.477  23.077  24.625  0.00  0.00    +0.000 A 
ATOM     13  C   UNL     1      29.240  22.660  24.231  0.00  0.00    +0.000 A 
ATOM     14  C   UNL     1      28.553  23.410  23.273  0.00  0.00    +0.000 A 
ATOM     15  O   UNL     1      27.292  23.023  22.842  0.00  0.00    +0.000 OA
ENDBRANCH   4   9
BRANCH   3  16
ATOM     16  C   UNL     1      27.323  26.483  23.792  0.00  0.00    +0.000 C 
ATOM     17  O   UNL     1      28.004  26.849  24.774  0.00  0.00    +0.000 OA
BRANCH  16  18
ATOM     18  O   UNL     1      26.103  25.974  24.075  0.00  0.00    +0.000 OA
BRANCH  18  19
ATOM     19  C   UNL     1      25.564  25.703  25.343  0.00  0.00    +0.000 C 
ATOM     20  C   UNL     1      24.103  26.168  25.300  0.00  0.00    +0.000 C 
ATOM     21  C   UNL     1      25.595  24.246  25.710  0.00  0.00    +0.000 C 
ENDBRANCH  18  19
ENDBRANCH  16  18
ENDBRANCH   3  16
TORSDOF 4
ENDMDL
