MODEL 1
REMARK VINA RESULT:      -6.8      0.000      0.000
REMARK  Name = 
REMARK  3 active torsions:
REMARK  status: ('A' for Active; 'I' for Inactive)
REMARK    1  A    between atoms: C_2  and  N_5
REMARK    2  A    between atoms: C_10  and  C_11
REMARK    3  A    between atoms: C_11  and  C_13
REMARK                            x       y       z     vdW  Elec       q    Type
REMARK                         _______ _______ _______ _____ _____    ______ ____
ROOT
ATOM      1  N   UNL     1      14.709  12.682  33.070  0.00  0.00    +0.000 NA
ATOM      2  C   UNL     1      15.583  12.058  34.018  0.00  0.00    +0.000 A 
ATOM      3  N   UNL     1      16.470  11.124  33.868  0.00  0.00    +0.000 NA
ATOM      4  C   UNL     1      17.162  10.676  34.865  0.00  0.00    +0.000 A 
ATOM      5  N   UNL     1      18.153   9.631  34.690  0.00  0.00    +0.000 NA
ATOM      6  C   UNL     1      16.922  11.225  36.079  0.00  0.00    +0.000 A 
ATOM      7  S   UNL     1      15.698  12.374  35.725  0.00  0.00    +0.000 S 
ENDROOT
BRANCH   1   9
ATOM      8  C   UNL     1      13.783  13.122  30.859  0.00  0.00    +0.000 C 
ATOM      9  C   UNL     1      14.743  12.260  31.672  0.00  0.00    +0.000 C 
ATOM     10  C   UNL     1      16.136  12.534  31.099  0.00  0.00    +0.000 C 
ATOM     11  C   UNL     1      14.448  10.798  31.511  0.00  0.00    +0.000 C 
ENDBRANCH   1   9
BRANCH   6  12
ATOM     12  C   UNL     1      17.565  10.888  37.359  0.00  0.00    +0.000 C 
ATOM     13  O   UNL     1      16.958  10.162  38.184  0.00  0.00    +0.000 OA
BRANCH  12  14
ATOM     14  C   UNL     1      18.884  11.374  37.700  0.00  0.00    +0.000 A 
ATOM     15  C   UNL     1      19.054  12.706  37.982  0.00  0.00    +0.000 A 
ATOM     16  C   UNL     1      20.278  13.238  38.315  0.00  0.00    +0.000 A 
ATOM     17  C   UNL     1      21.367  12.404  38.366  0.00  0.00    +0.000 A 
ATOM     18  C   UNL     1      21.249  11.066  38.093  0.00  0.00    +0.000 A 
ATOM     19  C   UNL     1      20.000  10.573  37.762  0.00  0.00    +0.000 A 
ENDBRANCH  12  14
ENDBRANCH   6  12
TORSDOF 3
ENDMDL
MODEL 2
REMARK VINA RESULT:      -6.5      2.120      3.306
REMARK  Name = 
REMARK  3 active torsions:
REMARK  status: ('A' for Active; 'I' for Inactive)
REMARK    1  A    between atoms: C_2  and  N_5
REMARK    2  A    between atoms: C_10  and  C_11
REMARK    3  A    between atoms: C_11  and  C_13
REMARK                            x       y       z     vdW  Elec       q    Type
REMARK                         _______ _______ _______ _____ _____    ______ ____
ROOT
ATOM      1  N   UNL     1      15.100  11.873  33.079  0.00  0.00    +0.000 NA
ATOM      2  C   UNL     1      15.886  11.337  34.150  0.00  0.00    +0.000 A 
ATOM      3  N   UNL     1      16.555  10.229  34.240  0.00  0.00    +0.000 NA
ATOM      4  C   UNL     1      17.201   9.910  35.313  0.00  0.00    +0.000 A 
ATOM      5  N   UNL     1      17.946   8.668  35.407  0.00  0.00    +0.000 NA
ATOM      6  C   UNL     1      17.154  10.784  36.346  0.00  0.00    +0.000 A 
ATOM      7  S   UNL     1      16.168  12.039  35.716  0.00  0.00    +0.000 S 
ENDROOT
BRANCH   1   9
ATOM      8  C   UNL     1      16.327  10.594  31.407  0.00  0.00    +0.000 C 
ATOM      9  C   UNL     1      14.961  11.117  31.838  0.00  0.00    +0.000 C 
ATOM     10  C   UNL     1      14.104   9.875  32.100  0.00  0.00    +0.000 C 
ATOM     11  C   UNL     1      14.305  11.918  30.752  0.00  0.00    +0.000 C 
ENDBRANCH   1   9
BRANCH   6  12
ATOM     12  C   UNL     1      17.793  10.651  37.665  0.00  0.00    +0.000 C 
ATOM     13  O   UNL     1      19.006  10.951  37.797  0.00  0.00    +0.000 OA
BRANCH  12  14
ATOM     14  C   UNL     1      17.063  10.181  38.821  0.00  0.00    +0.000 A 
ATOM     15  C   UNL     1      17.737   9.513  39.811  0.00  0.00    +0.000 A 
ATOM     16  C   UNL     1      17.109   9.039  40.939  0.00  0.00    +0.000 A 
ATOM     17  C   UNL     1      15.759   9.244  41.077  0.00  0.00    +0.000 A 
ATOM     18  C   UNL     1      15.040   9.907  40.116  0.00  0.00    +0.000 A 
ATOM     19  C   UNL     1      15.712  10.366  38.997  0.00  0.00    +0.000 A 
ENDBRANCH  12  14
ENDBRANCH   6  12
TORSDOF 3
ENDMDL
MODEL 3
REMARK VINA RESULT:      -5.6     21.101     22.406
REMARK  Name = 
REMARK  3 active torsions:
REMARK  status: ('A' for Active; 'I' for Inactive)
REMARK    1  A    between atoms: C_2  and  N_5
REMARK    2  A    between atoms: C_10  and  C_11
REMARK    3  A    between atoms: C_11  and  C_13
REMARK                            x       y       z     vdW  Elec       q    Type
REMARK                         _______ _______ _______ _____ _____    ______ ____
ROOT
ATOM      1  N   UNL     1      27.787  29.062  21.616  0.00  0.00    +0.000 NA
ATOM      2  C   UNL     1      27.978  27.654  21.798  0.00  0.00    +0.000 A 
ATOM      3  N   UNL     1      28.717  26.806  21.152  0.00  0.00    +0.000 NA
ATOM      4  C   UNL     1      28.745  25.552  21.464  0.00  0.00    +0.000 A 
ATOM      5  N   UNL     1      29.574  24.610  20.736  0.00  0.00    +0.000 NA
ATOM      6  C   UNL     1      27.969  25.155  22.500  0.00  0.00    +0.000 A 
ATOM      7  S   UNL     1      27.225  26.625  22.982  0.00  0.00    +0.000 S 
ENDROOT
BRANCH   1   9
ATOM      8  C   UNL     1      28.061  29.180  19.197  0.00  0.00    +0.000 C 
ATOM      9  C   UNL     1      28.496  29.752  20.542  0.00  0.00    +0.000 C 
ATOM     10  C   UNL     1      28.074  31.223  20.525  0.00  0.00    +0.000 C 
ATOM     11  C   UNL     1      29.986  29.695  20.713  0.00  0.00    +0.000 C 
ENDBRANCH   1   9
BRANCH   6  12
ATOM     12  C   UNL     1      27.820  23.795  23.042  0.00  0.00    +0.000 C 
ATOM     13  O   UNL     1      26.962  23.023  22.547  0.00  0.00    +0.000 OA
BRANCH  12  14
ATOM     14  C   UNL     1      28.637  23.318  24.136  0.00  0.00    +0.000 A 
ATOM     15  C   UNL     1      29.985  23.155  23.941  0.00  0.00    +0.000 A 
ATOM     16  C   UNL     1      30.824  22.707  24.936  0.00  0.00    +0.000 A 
ATOM     17  C   UNL     1      30.290  22.414  26.165  0.00  0.00    +0.000 A 
ATOM     18  C   UNL     1      28.949  22.560  26.410  0.00  0.00    +0.000 A 
ATOM     19  C   UNL     1      28.142  23.013  25.382  0.00  0.00    +0.000 A 
ENDBRANCH  12  14
ENDBRANCH   6  12
TORSDOF 3
ENDMDL
MODEL 4
REMARK VINA RESULT:      -5.5      4.983      7.203
REMARK  Name = 
REMARK  3 active torsions:
REMARK  status: ('A' for Active; 'I' for Inactive)
REMARK    1  A    between atoms: C_2  and  N_5
REMARK    2  A    between atoms: C_10  and  C_11
REMARK    3  A    between atoms: C_11  and  C_13
REMARK                            x       y       z     vdW  Elec       q    Type
REMARK                         _______ _______ _______ _____ _____    ______ ____
ROOT
ATOM      1  N   UNL     1      17.856   8.147  41.934  0.00  0.00    +0.000 NA
ATOM      2  C   UNL     1      18.172   8.711  40.656  0.00  0.00    +0.000 A 
ATOM      3  N   UNL     1      17.478   9.472  39.868  0.00  0.00    +0.000 NA
ATOM      4  C   UNL     1      17.940   9.874  38.729  0.00  0.00    +0.000 A 
ATOM      5  N   UNL     1      17.157  10.724  37.852  0.00  0.00    +0.000 NA
ATOM      6  C   UNL     1      19.186   9.466  38.389  0.00  0.00    +0.000 A 
ATOM      7  S   UNL     1      19.639   8.513  39.742  0.00  0.00    +0.000 S 
ENDROOT
BRANCH   1   9
ATOM      8  C   UNL     1      15.453   7.967  41.575  0.00  0.00    +0.000 C 
ATOM      9  C   UNL     1      16.551   8.410  42.535  0.00  0.00    +0.000 C 
ATOM     10  C   UNL     1      16.388   7.540  43.784  0.00  0.00    +0.000 C 
ATOM     11  C   UNL     1      16.389   9.846  42.939  0.00  0.00    +0.000 C 
ENDBRANCH   1   9
BRANCH   6  12
ATOM     12  C   UNL     1      19.927   9.778  37.157  0.00  0.00    +0.000 C 
ATOM     13  O   UNL     1      19.389   9.568  36.042  0.00  0.00    +0.000 OA
BRANCH  12  14
ATOM     14  C   UNL     1      21.268  10.320  37.191  0.00  0.00    +0.000 A 
ATOM     15  C   UNL     1      22.230   9.774  36.380  0.00  0.00    +0.000 A 
ATOM     16  C   UNL     1      23.525  10.239  36.358  0.00  0.00    +0.000 A 
ATOM     17  C   UNL     1      23.862  11.287  37.178  0.00  0.00    +0.000 A 
ATOM     18  C   UNL     1      22.937  11.866  38.006  0.00  0.00    +0.000 A 
ATOM     19  C   UNL     1      21.647  11.367  37.997  0.00  0.00    +0.000 A 
ENDBRANCH  12  14
ENDBRANCH   6  12
TORSDOF 3
ENDMDL
MODEL 5
REMARK VINA RESULT:      -5.5     20.761     22.067
REMARK  Name = 
REMARK  3 active torsions:
REMARK  status: ('A' for Active; 'I' for Inactive)
REMARK    1  A    between atoms: C_2  and  N_5
REMARK    2  A    between atoms: C_10  and  C_11
REMARK    3  A    between atoms: C_11  and  C_13
REMARK                            x       y       z     vdW  Elec       q    Type
REMARK                         _______ _______ _______ _____ _____    ______ ____
ROOT
ATOM      1  N   UNL     1      29.630  27.445  20.153  0.00  0.00    +0.000 NA
ATOM      2  C   UNL     1      28.949  26.623  21.109  0.00  0.00    +0.000 A 
ATOM      3  N   UNL     1      28.063  26.922  22.008  0.00  0.00    +0.000 NA
ATOM      4  C   UNL     1      27.568  26.028  22.800  0.00  0.00    +0.000 A 
ATOM      5  N   UNL     1      26.578  26.370  23.804  0.00  0.00    +0.000 NA
ATOM      6  C   UNL     1      28.012  24.757  22.651  0.00  0.00    +0.000 A 
ATOM      7  S   UNL     1      29.136  24.912  21.364  0.00  0.00    +0.000 S 
ENDROOT
BRANCH   1   9
ATOM      8  C   UNL     1      29.626  29.490  21.478  0.00  0.00    +0.000 C 
ATOM      9  C   UNL     1      29.353  28.878  20.108  0.00  0.00    +0.000 C 
ATOM     10  C   UNL     1      30.339  29.550  19.148  0.00  0.00    +0.000 C 
ATOM     11  C   UNL     1      27.961  29.175  19.634  0.00  0.00    +0.000 C 
ENDBRANCH   1   9
BRANCH   6  12
ATOM     12  C   UNL     1      27.614  23.571  23.425  0.00  0.00    +0.000 C 
ATOM     13  O   UNL     1      26.560  22.960  23.121  0.00  0.00    +0.000 OA
BRANCH  12  14
ATOM     14  C   UNL     1      28.404  23.084  24.534  0.00  0.00    +0.000 A 
ATOM     15  C   UNL     1      27.790  22.841  25.736  0.00  0.00    +0.000 A 
ATOM     16  C   UNL     1      28.477  22.376  26.833  0.00  0.00    +0.000 A 
ATOM     17  C   UNL     1      29.826  22.148  26.718  0.00  0.00    +0.000 A 
ATOM     18  C   UNL     1      30.486  22.376  25.538  0.00  0.00    +0.000 A 
ATOM     19  C   UNL     1      29.756  22.844  24.461  0.00  0.00    +0.000 A 
ENDBRANCH  12  14
ENDBRANCH   6  12
TORSDOF 3
ENDMDL
MODEL 6
REMARK VINA RESULT:      -5.3     18.685     19.987
REMARK  Name = 
REMARK  3 active torsions:
REMARK  status: ('A' for Active; 'I' for Inactive)
REMARK    1  A    between atoms: C_2  and  N_5
REMARK    2  A    between atoms: C_10  and  C_11
REMARK    3  A    between atoms: C_11  and  C_13
REMARK                            x       y       z     vdW  Elec       q    Type
REMARK                         _______ _______ _______ _____ _____    ______ ____
ROOT
ATOM      1  N   UNL     1      24.445  27.482  25.679  0.00  0.00    +0.000 NA
ATOM      2  C   UNL     1      25.198  26.388  25.143  0.00  0.00    +0.000 A 
ATOM      3  N   UNL     1      25.058  25.107  25.291  0.00  0.00    +0.000 NA
ATOM      4  C   UNL     1      25.861  24.265  24.726  0.00  0.00    +0.000 A 
ATOM      5  N   UNL     1      25.699  22.834  24.897  0.00  0.00    +0.000 NA
ATOM      6  C   UNL     1      26.859  24.777  23.967  0.00  0.00    +0.000 A 
ATOM      7  S   UNL     1      26.592  26.467  24.105  0.00  0.00    +0.000 S 
ENDROOT
BRANCH   1   9
ATOM      8  C   UNL     1      23.768  26.338  27.721  0.00  0.00    +0.000 C 
ATOM      9  C   UNL     1      23.311  27.213  26.560  0.00  0.00    +0.000 C 
ATOM     10  C   UNL     1      22.841  28.527  27.189  0.00  0.00    +0.000 C 
ATOM     11  C   UNL     1      22.152  26.604  25.827  0.00  0.00    +0.000 C 
ENDBRANCH   1   9
BRANCH   6  12
ATOM     12  C   UNL     1      27.897  24.038  23.232  0.00  0.00    +0.000 C 
ATOM     13  O   UNL     1      27.623  23.532  22.116  0.00  0.00    +0.000 OA
BRANCH  12  14
ATOM     14  C   UNL     1      29.233  23.873  23.761  0.00  0.00    +0.000 A 
ATOM     15  C   UNL     1      30.081  24.951  23.780  0.00  0.00    +0.000 A 
ATOM     16  C   UNL     1      31.365  24.869  24.269  0.00  0.00    +0.000 A 
ATOM     17  C   UNL     1      31.809  23.665  24.755  0.00  0.00    +0.000 A 
ATOM     18  C   UNL     1      31.000  22.559  24.758  0.00  0.00    +0.000 A 
ATOM     19  C   UNL     1      29.717  22.686  24.257  0.00  0.00    +0.000 A 
ENDBRANCH  12  14
ENDBRANCH   6  12
TORSDOF 3
ENDMDL
MODEL 7
REMARK VINA RESULT:      -5.3     18.389     19.664
REMARK  Name = 
REMARK  3 active torsions:
REMARK  status: ('A' for Active; 'I' for Inactive)
REMARK    1  A    between atoms: C_2  and  N_5
REMARK    2  A    between atoms: C_10  and  C_11
REMARK    3  A    between atoms: C_11  and  C_13
REMARK                            x       y       z     vdW  Elec       q    Type
REMARK                         _______ _______ _______ _____ _____    ______ ____
ROOT
ATOM      1  N   UNL     1      23.856  25.572  26.861  0.00  0.00    +0.000 NA
ATOM      2  C   UNL     1      24.918  25.285  25.943  0.00  0.00    +0.000 A 
ATOM      3  N   UNL     1      25.453  26.009  25.010  0.00  0.00    +0.000 NA
ATOM      4  C   UNL     1      26.409  25.561  24.264  0.00  0.00    +0.000 A 
ATOM      5  N   UNL     1      27.003  26.378  23.222  0.00  0.00    +0.000 NA
ATOM      6  C   UNL     1      26.833  24.296  24.497  0.00  0.00    +0.000 A 
ATOM      7  S   UNL     1      25.823  23.807  25.795  0.00  0.00    +0.000 S 
ENDROOT
BRANCH   1   9
ATOM      8  C   UNL     1      22.499  27.040  25.469  0.00  0.00    +0.000 C 
ATOM      9  C   UNL     1      23.196  26.873  26.815  0.00  0.00    +0.000 C 
ATOM     10  C   UNL     1      22.084  26.910  27.866  0.00  0.00    +0.000 C 
ATOM     11  C   UNL     1      24.143  28.003  27.094  0.00  0.00    +0.000 C 
ENDBRANCH   1   9
BRANCH   6  12
ATOM     12  C   UNL     1      27.892  23.559  23.788  0.00  0.00    +0.000 C 
ATOM     13  O   UNL     1      27.642  23.037  22.674  0.00  0.00    +0.000 OA
BRANCH  12  14
ATOM     14  C   UNL     1      29.220  23.416  24.341  0.00  0.00    +0.000 A 
ATOM     15  C   UNL     1      29.394  22.663  25.475  0.00  0.00    +0.000 A 
ATOM     16  C   UNL     1      30.628  22.481  26.055  0.00  0.00    +0.000 A 
ATOM     17  C   UNL     1      31.723  23.074  25.477  0.00  0.00    +0.000 A 
ATOM     18  C   UNL     1      31.601  23.836  24.345  0.00  0.00    +0.000 A 
ATOM     19  C   UNL     1      30.342  23.993  23.794  0.00  0.00    +0.000 A 
ENDBRANCH  12  14
ENDBRANCH   6  12
TORSDOF 3
ENDMDL
MODEL 8
REMARK VINA RESULT:      -5.2     19.713     20.929
REMARK  Name = 
REMARK  3 active torsions:
REMARK  status: ('A' for Active; 'I' for Inactive)
REMARK    1  A    between atoms: C_2  and  N_5
REMARK    2  A    between atoms: C_10  and  C_11
REMARK    3  A    between atoms: C_11  and  C_13
REMARK                            x       y       z     vdW  Elec       q    Type
REMARK                         _______ _______ _______ _____ _____    ______ ____
ROOT
ATOM      1  N   UNL     1      27.346  28.365  22.350  0.00  0.00    +0.000 NA
ATOM      2  C   UNL     1      27.276  26.987  22.732  0.00  0.00    +0.000 A 
ATOM      3  N   UNL     1      27.353  25.903  22.024  0.00  0.00    +0.000 NA
ATOM      4  C   UNL     1      27.252  24.731  22.559  0.00  0.00    +0.000 A 
ATOM      5  N   UNL     1      27.338  23.523  21.759  0.00  0.00    +0.000 NA
ATOM      6  C   UNL     1      27.062  24.678  23.899  0.00  0.00    +0.000 A 
ATOM      7  S   UNL     1      27.038  26.339  24.329  0.00  0.00    +0.000 S 
ENDROOT
BRANCH   1   9
ATOM      8  C   UNL     1      27.616  30.230  20.804  0.00  0.00    +0.000 C 
ATOM      9  C   UNL     1      27.527  28.714  20.943  0.00  0.00    +0.000 C 
ATOM     10  C   UNL     1      28.876  28.173  20.461  0.00  0.00    +0.000 C 
ATOM     11  C   UNL     1      26.452  28.138  20.070  0.00  0.00    +0.000 C 
ENDBRANCH   1   9
BRANCH   6  12
ATOM     12  C   UNL     1      26.911  23.478  24.738  0.00  0.00    +0.000 C 
ATOM     13  O   UNL     1      25.807  22.882  24.770  0.00  0.00    +0.000 OA
BRANCH  12  14
ATOM     14  C   UNL     1      28.004  22.963  25.533  0.00  0.00    +0.000 A 
ATOM     15  C   UNL     1      29.237  22.807  24.953  0.00  0.00    +0.000 A 
ATOM     16  C   UNL     1      30.322  22.324  25.648  0.00  0.00    +0.000 A 
ATOM     17  C   UNL     1      30.162  21.988  26.968  0.00  0.00    +0.000 A 
ATOM     18  C   UNL     1      28.949  22.124  27.593  0.00  0.00    +0.000 A 
ATOM     19  C   UNL     1      27.885  22.613  26.857  0.00  0.00    +0.000 A 
ENDBRANCH  12  14
ENDBRANCH   6  12
TORSDOF 3
ENDMDL
MODEL 9
REMARK VINA RESULT:      -5.2     20.856     22.616
REMARK  Name = 
REMARK  3 active torsions:
REMARK  status: ('A' for Active; 'I' for Inactive)
REMARK    1  A    between atoms: C_2  and  N_5
REMARK    2  A    between atoms: C_10  and  C_11
REMARK    3  A    between atoms: C_11  and  C_13
REMARK                            x       y       z     vdW  Elec       q    Type
REMARK                         _______ _______ _______ _____ _____    ______ ____
ROOT
ATOM      1  N   UNL     1      11.979  -8.678  24.294  0.00  0.00    +0.000 NA
ATOM      2  C   UNL     1      13.378  -8.765  24.590  0.00  0.00    +0.000 A 
ATOM      3  N   UNL     1      14.389  -9.067  23.836  0.00  0.00    +0.000 NA
ATOM      4  C   UNL     1      15.596  -9.105  24.298  0.00  0.00    +0.000 A 
ATOM      5  N   UNL     1      16.721  -9.445  23.448  0.00  0.00    +0.000 NA
ATOM      6  C   UNL     1      15.764  -8.813  25.609  0.00  0.00    +0.000 A 
ATOM      7  S   UNL     1      14.158  -8.495  26.122  0.00  0.00    +0.000 S 
ENDROOT
BRANCH   1   9
ATOM      8  C   UNL     1      11.719 -10.447  22.638  0.00  0.00    +0.000 C 
ATOM      9  C   UNL     1      11.509  -8.967  22.942  0.00  0.00    +0.000 C 
ATOM     10  C   UNL     1       9.997  -8.740  22.876  0.00  0.00    +0.000 C 
ATOM     11  C   UNL     1      12.161  -8.091  21.913  0.00  0.00    +0.000 C 
ENDBRANCH   1   9
BRANCH   6  12
ATOM     12  C   UNL     1      17.024  -8.794  26.370  0.00  0.00    +0.000 C 
ATOM     13  O   UNL     1      17.318  -9.769  27.104  0.00  0.00    +0.000 OA
BRANCH  12  14
ATOM     14  C   UNL     1      17.939  -7.676  26.298  0.00  0.00    +0.000 A 
ATOM     15  C   UNL     1      17.581  -6.481  26.869  0.00  0.00    +0.000 A 
ATOM     16  C   UNL     1      18.401  -5.377  26.840  0.00  0.00    +0.000 A 
ATOM     17  C   UNL     1      19.620  -5.477  26.219  0.00  0.00    +0.000 A 
ATOM     18  C   UNL     1      20.024  -6.649  25.634  0.00  0.00    +0.000 A 
ATOM     19  C   UNL     1      19.169  -7.734  25.685  0.00  0.00    +0.000 A 
ENDBRANCH  12  14
ENDBRANCH   6  12
TORSDOF 3
ENDMDL
MODEL 10
REMARK VINA RESULT:      -5.2     18.277     20.245
REMARK  Name = 
REMARK  3 active torsions:
REMARK  status: ('A' for Active; 'I' for Inactive)
REMARK    1  A    between atoms: C_2  and  N_5
REMARK    2  A    between atoms: C_10  and  C_11
REMARK    3  A    between atoms: C_11  and  C_13
REMARK                            x       y       z     vdW  Elec       q    Type
REMARK                         _______ _______ _______ _____ _____    ______ ____
ROOT
ATOM      1  N   UNL     1      29.703  22.683  28.473  0.00  0.00    +0.000 NA
ATOM      2  C   UNL     1      28.862  23.032  27.367  0.00  0.00    +0.000 A 
ATOM      3  N   UNL     1      27.706  23.618  27.330  0.00  0.00    +0.000 NA
ATOM      4  C   UNL     1      27.089  23.837  26.215  0.00  0.00    +0.000 A 
ATOM      5  N   UNL     1      25.795  24.492  26.182  0.00  0.00    +0.000 NA
ATOM      6  C   UNL     1      27.702  23.428  25.079  0.00  0.00    +0.000 A 
ATOM      7  S   UNL     1      29.156  22.740  25.677  0.00  0.00    +0.000 S 
ENDROOT
BRANCH   1   9
ATOM      8  C   UNL     1      27.916  22.339  30.094  0.00  0.00    +0.000 C 
ATOM      9  C   UNL     1      29.269  22.992  29.833  0.00  0.00    +0.000 C 
ATOM     10  C   UNL     1      30.240  22.351  30.828  0.00  0.00    +0.000 C 
ATOM     11  C   UNL     1      29.233  24.468  30.098  0.00  0.00    +0.000 C 
ENDBRANCH   1   9
BRANCH   6  12
ATOM     12  C   UNL     1      27.210  23.553  23.698  0.00  0.00    +0.000 C 
ATOM     13  O   UNL     1      26.265  22.823  23.310  0.00  0.00    +0.000 OA
BRANCH  12  14
ATOM     14  C   UNL     1      27.786  24.498  22.767  0.00  0.00    +0.000 A 
ATOM     15  C   UNL     1      27.268  25.766  22.694  0.00  0.00    +0.000 A 
ATOM     16  C   UNL     1      27.767  26.717  21.834  0.00  0.00    +0.000 A 
ATOM     17  C   UNL     1      28.821  26.382  21.021  0.00  0.00    +0.000 A 
ATOM     18  C   UNL     1      29.373  25.128  21.056  0.00  0.00    +0.000 A 
ATOM     19  C   UNL     1      28.841  24.203  21.936  0.00  0.00    +0.000 A 
ENDBRANCH  12  14
ENDBRANCH   6  12
TORSDOF 3
ENDMDL
